<?xml version="1.0" encoding="UTF-8"?>

<!-- generated on 2026-03-17T22:42:37.293253+05:30 by Eclipse SUMO netconvert 1.25.0
<netconvertConfiguration xmlns:xsi="http://www.w3.org/2001/XMLSchema-instance" xsi:noNamespaceSchemaLocation="http://sumo.dlr.de/xsd/netconvertConfiguration.xsd">

    <input>
        <osm-files value="map.osm"/>
    </input>

    <output>
        <output-file value="area.net.xml"/>
    </output>

    <projection>
        <proj.utm value="true"/>
    </projection>

    <processing>
        <geometry.remove value="true"/>
        <roundabouts.guess value="true"/>
    </processing>

    <ramp_guessing>
        <ramps.guess value="true"/>
    </ramp_guessing>

    <junctions>
        <no-turnarounds value="true"/>
    </junctions>

</netconvertConfiguration>
-->

<net version="1.20" junctionCornerDetail="5" limitTurnSpeed="5.50" xmlns:xsi="http://www.w3.org/2001/XMLSchema-instance" xsi:noNamespaceSchemaLocation="http://sumo.dlr.de/xsd/net_file.xsd">

    <location netOffset="-690872.20,-964018.37" convBoundary="0.00,0.00,11661.21,10358.74" origBoundary="76.735036,8.675841,76.841263,8.810680" projParameter="+proj=utm +zone=43 +ellps=WGS84 +datum=WGS84 +units=m +no_defs"/>

    <type id="highway.footway" priority="1" numLanes="1" speed="2.78" allow="pedestrian" oneway="1" width="2.00"/>
    <type id="highway.living_street" priority="2" numLanes="1" speed="2.78" disallow="tram rail_urban rail rail_electric rail_fast ship container cable_car subway aircraft wheelchair scooter drone" oneway="0"/>
    <type id="highway.residential" priority="3" numLanes="1" speed="13.89" disallow="tram rail_urban rail rail_electric rail_fast ship container cable_car subway aircraft wheelchair scooter drone" oneway="0"/>
    <type id="highway.secondary" priority="11" numLanes="1" speed="27.78" disallow="tram rail_urban rail rail_electric rail_fast ship container cable_car subway aircraft wheelchair scooter drone" oneway="0"/>
    <type id="highway.service" priority="1" numLanes="1" speed="5.56" allow="pedestrian delivery bicycle" oneway="0"/>
    <type id="highway.tertiary" priority="10" numLanes="1" speed="22.22" disallow="tram rail_urban rail rail_electric rail_fast ship container cable_car subway aircraft wheelchair scooter drone" oneway="0"/>
    <type id="highway.trunk" priority="13" numLanes="2" speed="27.78" disallow="pedestrian bicycle tram rail_urban rail rail_electric rail_fast ship container cable_car subway aircraft wheelchair scooter drone" oneway="0"/>
    <type id="highway.unclassified" priority="4" numLanes="1" speed="13.89" disallow="tram rail_urban rail rail_electric rail_fast ship container cable_car subway aircraft wheelchair scooter drone" oneway="0"/>

    <edge id=":10613605911_0" function="internal">
        <lane id=":10613605911_0_0" index="0" disallow="tram rail_urban rail rail_electric rail_fast ship container cable_car subway aircraft wheelchair scooter drone" speed="6.29" length="9.04" shape="5370.23,4721.24 5368.32,4719.61 5366.40,4719.04 5364.46,4719.55 5362.50,4721.14"/>
    </edge>
    <edge id=":10613605911_1" function="internal">
        <lane id=":10613605911_1_0" index="0" disallow="tram rail_urban rail rail_electric rail_fast ship container cable_car subway aircraft wheelchair scooter drone" speed="13.89" length="13.88" shape="5370.23,4721.24 5367.95,4718.48 5366.04,4715.70 5364.48,4712.72 5363.24,4709.38"/>
    </edge>
    <edge id=":10613605911_2" function="internal">
        <lane id=":10613605911_2_0" index="0" disallow="tram rail_urban rail rail_electric rail_fast ship container cable_car subway aircraft wheelchair scooter drone" speed="13.89" length="12.54" shape="5366.30,4708.45 5367.44,4711.61 5368.78,4714.18 5370.46,4716.55 5372.64,4719.14"/>
    </edge>
    <edge id=":10613605911_3" function="internal">
        <lane id=":10613605911_3_0" index="0" disallow="tram rail_urban rail rail_electric rail_fast ship container cable_car subway aircraft wheelchair scooter drone" speed="10.12" length="3.25" shape="5366.30,4708.45 5366.80,4711.67"/>
    </edge>
    <edge id=":10613605911_6" function="internal">
        <lane id=":10613605911_6_0" index="0" disallow="tram rail_urban rail rail_electric rail_fast ship container cable_car subway aircraft wheelchair scooter drone" speed="10.12" length="10.62" shape="5366.80,4711.67 5366.33,4714.85 5364.90,4718.01 5362.50,4721.14"/>
    </edge>
    <edge id=":10613605911_4" function="internal">
        <lane id=":10613605911_4_0" index="0" disallow="tram rail_urban rail rail_electric rail_fast ship container cable_car subway aircraft wheelchair scooter drone" speed="8.88" length="10.54" shape="5360.15,4718.96 5362.04,4716.54 5363.18,4714.13 5363.58,4711.74 5363.24,4709.38"/>
    </edge>
    <edge id=":10613605911_5" function="internal">
        <lane id=":10613605911_5_0" index="0" disallow="tram rail_urban rail rail_electric rail_fast ship container cable_car subway aircraft wheelchair scooter drone" speed="7.82" length="14.61" shape="5360.15,4718.96 5363.31,4716.40 5366.44,4715.58 5369.55,4716.49 5372.64,4719.14"/>
    </edge>
    <edge id=":10613605913_0" function="internal">
        <lane id=":10613605913_0_0" index="0" disallow="tram rail_urban rail rail_electric rail_fast ship container cable_car subway aircraft wheelchair scooter drone" speed="27.78" length="14.87" shape="5303.57,4792.88 5290.43,4785.92"/>
    </edge>
    <edge id=":10613605913_1" function="internal">
        <lane id=":10613605913_1_0" index="0" disallow="tram rail_urban rail rail_electric rail_fast ship container cable_car subway aircraft wheelchair scooter drone" speed="7.50" length="4.62" shape="5303.57,4792.88 5299.83,4790.17"/>
    </edge>
    <edge id=":10613605913_6" function="internal">
        <lane id=":10613605913_6_0" index="0" disallow="tram rail_urban rail rail_electric rail_fast ship container cable_car subway aircraft wheelchair scooter drone" speed="7.50" length="11.24" shape="5299.83,4790.17 5298.35,4787.21 5299.13,4783.99 5302.18,4780.52"/>
    </edge>
    <edge id=":10613605913_2" function="internal">
        <lane id=":10613605913_2_0" index="0" disallow="tram rail_urban rail rail_electric rail_fast ship container cable_car subway aircraft wheelchair scooter drone" speed="5.85" length="9.12" shape="5304.27,4782.94 5302.51,4784.94 5302.06,4786.79 5302.92,4788.49 5305.07,4790.05"/>
    </edge>
    <edge id=":10613605913_3" function="internal">
        <lane id=":10613605913_3_0" index="0" disallow="tram rail_urban rail rail_electric rail_fast ship container cable_car subway aircraft wheelchair scooter drone" speed="9.65" length="15.09" shape="5304.27,4782.94 5300.62,4785.52 5297.10,4786.88 5293.70,4787.01 5290.43,4785.92"/>
    </edge>
    <edge id=":10613605913_4" function="internal">
        <lane id=":10613605913_4_0" index="0" disallow="tram rail_urban rail rail_electric rail_fast ship container cable_car subway aircraft wheelchair scooter drone" speed="8.40" length="11.25" shape="5291.92,4783.09 5294.25,4783.83 5296.74,4783.64 5299.38,4782.54 5302.18,4780.52"/>
    </edge>
    <edge id=":10613605913_5" function="internal">
        <lane id=":10613605913_5_0" index="0" disallow="tram rail_urban rail rail_electric rail_fast ship container cable_car subway aircraft wheelchair scooter drone" speed="27.78" length="14.87" shape="5291.92,4783.09 5305.07,4790.05"/>
    </edge>
    <edge id=":10613605919_0" function="internal">
        <lane id=":10613605919_0_0" index="0" disallow="tram rail_urban rail rail_electric rail_fast ship container cable_car subway aircraft wheelchair scooter drone" speed="6.11" length="9.06" shape="5397.97,4615.39 5396.86,4613.08 5395.32,4611.85 5393.35,4611.70 5390.96,4612.62"/>
    </edge>
    <edge id=":10613605919_1" function="internal">
        <lane id=":10613605919_1_0" index="0" disallow="tram rail_urban rail rail_electric rail_fast ship container cable_car subway aircraft wheelchair scooter drone" speed="13.89" length="14.54" shape="5397.97,4615.39 5393.58,4601.53"/>
    </edge>
    <edge id=":10613605919_2" function="internal">
        <lane id=":10613605919_2_0" index="0" disallow="tram rail_urban rail rail_electric rail_fast ship container cable_car subway aircraft wheelchair scooter drone" speed="13.89" length="14.54" shape="5396.63,4600.57 5401.02,4614.42"/>
    </edge>
    <edge id=":10613605919_3" function="internal">
        <lane id=":10613605919_3_0" index="0" disallow="tram rail_urban rail rail_electric rail_fast ship container cable_car subway aircraft wheelchair scooter drone" speed="8.77" length="3.79" shape="5396.63,4600.57 5397.17,4604.15 5397.13,4604.31"/>
    </edge>
    <edge id=":10613605919_6" function="internal">
        <lane id=":10613605919_6_0" index="0" disallow="tram rail_urban rail rail_electric rail_fast ship container cable_car subway aircraft wheelchair scooter drone" speed="8.77" length="10.79" shape="5397.13,4604.31 5396.41,4607.35 5394.34,4610.17 5390.96,4612.62"/>
    </edge>
    <edge id=":10613605919_4" function="internal">
        <lane id=":10613605919_4_0" index="0" disallow="tram rail_urban rail rail_electric rail_fast ship container cable_car subway aircraft wheelchair scooter drone" speed="7.41" length="10.15" shape="5389.40,4609.82 5391.83,4608.09 5393.33,4606.13 5393.92,4603.95 5393.58,4601.53"/>
    </edge>
    <edge id=":10613605919_5" function="internal">
        <lane id=":10613605919_5_0" index="0" disallow="tram rail_urban rail rail_electric rail_fast ship container cable_car subway aircraft wheelchair scooter drone" speed="7.68" length="15.03" shape="5389.40,4609.82 5393.36,4608.30 5396.62,4608.56 5399.17,4610.60 5401.02,4614.42"/>
    </edge>
    <edge id=":10613605922_0" function="internal">
        <lane id=":10613605922_0_0" index="0" disallow="tram rail_urban rail rail_electric rail_fast ship container cable_car subway aircraft wheelchair scooter drone" speed="13.07" length="15.32" shape="5485.01,4729.33 5481.46,4728.40 5477.66,4728.63 5473.81,4729.56 5470.11,4730.74"/>
    </edge>
    <edge id=":10613605922_1" function="internal">
        <lane id=":10613605922_1_0" index="0" disallow="tram rail_urban rail rail_electric rail_fast ship container cable_car subway aircraft wheelchair scooter drone" speed="13.89" length="17.21" shape="5485.01,4729.33 5469.56,4721.75"/>
    </edge>
    <edge id=":10613605922_2" function="internal">
        <lane id=":10613605922_2_0" index="0" disallow="tram rail_urban rail rail_electric rail_fast ship container cable_car subway aircraft wheelchair scooter drone" speed="13.89" length="17.21" shape="5470.97,4718.87 5486.42,4726.45"/>
    </edge>
    <edge id=":10613605922_3" function="internal">
        <lane id=":10613605922_3_0" index="0" disallow="tram rail_urban rail rail_electric rail_fast ship container cable_car subway aircraft wheelchair scooter drone" speed="7.44" length="6.10" shape="5470.97,4718.87 5476.11,4722.15"/>
    </edge>
    <edge id=":10613605922_6" function="internal">
        <lane id=":10613605922_6_0" index="0" disallow="tram rail_urban rail rail_electric rail_fast ship container cable_car subway aircraft wheelchair scooter drone" speed="7.44" length="13.43" shape="5476.11,4722.15 5476.26,4722.24 5477.88,4725.34 5475.83,4728.17 5470.11,4730.74"/>
    </edge>
    <edge id=":10613605922_4" function="internal">
        <lane id=":10613605922_4_0" index="0" disallow="tram rail_urban rail rail_electric rail_fast ship container cable_car subway aircraft wheelchair scooter drone" speed="5.47" length="9.79" shape="5469.13,4727.70 5471.99,4726.41 5473.02,4724.99 5472.21,4723.43 5469.56,4721.75"/>
    </edge>
    <edge id=":10613605922_5" function="internal">
        <lane id=":10613605922_5_0" index="0" disallow="tram rail_urban rail rail_electric rail_fast ship container cable_car subway aircraft wheelchair scooter drone" speed="13.89" length="17.65" shape="5469.13,4727.70 5473.20,4726.54 5477.87,4725.67 5482.49,4725.50 5486.42,4726.45"/>
    </edge>
    <edge id=":11332308659_0" function="internal">
        <lane id=":11332308659_0_0" index="0" disallow="pedestrian bicycle tram rail_urban rail rail_electric rail_fast ship container cable_car subway aircraft wheelchair scooter drone" speed="19.44" length="14.43" shape="6422.01,4424.10 6416.97,4437.62"/>
    </edge>
    <edge id=":11332308659_1" function="internal">
        <lane id=":11332308659_1_0" index="0" disallow="pedestrian bicycle tram rail_urban rail rail_electric rail_fast ship container cable_car subway aircraft wheelchair scooter drone" speed="8.36" length="3.91" shape="6422.01,4424.10 6420.20,4427.37 6420.07,4427.47"/>
    </edge>
    <edge id=":11332308659_6" function="internal">
        <lane id=":11332308659_6_0" index="0" disallow="pedestrian bicycle tram rail_urban rail rail_electric rail_fast ship container cable_car subway aircraft wheelchair scooter drone" speed="8.36" length="10.45" shape="6420.07,4427.47 6417.66,4429.39 6414.39,4430.14 6410.40,4429.65"/>
    </edge>
    <edge id=":11332308659_2" function="internal">
        <lane id=":11332308659_2_0" index="0" disallow="pedestrian bicycle tram rail_urban rail rail_electric rail_fast ship container cable_car subway aircraft wheelchair scooter drone" speed="6.93" length="9.58" shape="6411.20,4426.55 6413.91,4426.90 6416.11,4426.42 6417.81,4425.11 6419.01,4422.98"/>
    </edge>
    <edge id=":11332308659_3" function="internal">
        <lane id=":11332308659_3_0" index="0" disallow="pedestrian bicycle tram rail_urban rail rail_electric rail_fast ship container cable_car subway aircraft wheelchair scooter drone" speed="7.83" length="14.60" shape="6411.20,4426.55 6414.95,4428.12 6417.16,4430.49 6417.83,4433.65 6416.97,4437.62"/>
    </edge>
    <edge id=":11332308659_4" function="internal">
        <lane id=":11332308659_4_0" index="0" disallow="pedestrian bicycle tram rail_urban rail rail_electric rail_fast ship container cable_car subway aircraft wheelchair scooter drone" speed="6.29" length="9.04" shape="6413.97,4436.50 6414.51,4434.05 6414.09,4432.08 6412.72,4430.62 6410.40,4429.65"/>
    </edge>
    <edge id=":11332308659_5" function="internal">
        <lane id=":11332308659_5_0" index="0" disallow="pedestrian bicycle tram rail_urban rail rail_electric rail_fast ship container cable_car subway aircraft wheelchair scooter drone" speed="19.44" length="14.43" shape="6413.97,4436.50 6419.01,4422.98"/>
    </edge>
    <edge id=":11332314283_0" function="internal">
        <lane id=":11332314283_0_0" index="0" disallow="tram rail_urban rail rail_electric rail_fast ship container cable_car subway aircraft wheelchair scooter drone" speed="8.16" length="11.77" shape="5900.19,4901.85 5897.23,4901.19 5894.52,4901.52 5892.07,4902.86 5889.86,4905.20"/>
    </edge>
    <edge id=":11332314283_1" function="internal">
        <lane id=":11332314283_1_0" index="0" disallow="tram rail_urban rail rail_electric rail_fast ship container cable_car subway aircraft wheelchair scooter drone" speed="13.89" length="16.06" shape="5900.19,4901.85 5885.14,4896.27"/>
    </edge>
    <edge id=":11332314283_2" function="internal">
        <lane id=":11332314283_2_0" index="0" disallow="tram rail_urban rail rail_electric rail_fast ship container cable_car subway aircraft wheelchair scooter drone" speed="7.72" length="4.19" shape="5900.19,4901.85 5896.52,4899.83"/>
    </edge>
    <edge id=":11332314283_12" function="internal">
        <lane id=":11332314283_12_0" index="0" disallow="tram rail_urban rail rail_electric rail_fast ship container cable_car subway aircraft wheelchair scooter drone" speed="7.72" length="10.71" shape="5896.52,4899.83 5894.61,4897.18 5894.46,4893.93 5896.08,4890.05"/>
    </edge>
    <edge id=":11332314283_3" function="internal">
        <lane id=":11332314283_3_0" index="0" disallow="tram rail_urban rail rail_electric rail_fast ship container cable_car subway aircraft wheelchair scooter drone" speed="6.16" length="9.05" shape="5898.82,4891.70 5897.84,4894.05 5897.93,4896.02 5899.09,4897.63 5901.32,4898.86"/>
    </edge>
    <edge id=":11332314283_4" function="internal">
        <lane id=":11332314283_4_0" index="0" disallow="tram rail_urban rail rail_electric rail_fast ship container cable_car subway aircraft wheelchair scooter drone" speed="13.89" length="16.21" shape="5898.82,4891.70 5896.76,4895.05 5894.49,4898.54 5892.15,4901.99 5889.86,4905.20"/>
    </edge>
    <edge id=":11332314283_5" function="internal">
        <lane id=":11332314283_5_0" index="0" disallow="tram rail_urban rail rail_electric rail_fast ship container cable_car subway aircraft wheelchair scooter drone" speed="9.07" length="15.86" shape="5898.82,4891.70 5896.21,4894.93 5893.06,4896.76 5889.37,4897.21 5885.14,4896.27"/>
    </edge>
    <edge id=":11332314283_6" function="internal">
        <lane id=":11332314283_6_0" index="0" disallow="tram rail_urban rail rail_electric rail_fast ship container cable_car subway aircraft wheelchair scooter drone" speed="7.76" length="11.37" shape="5886.23,4893.26 5889.29,4893.95 5891.95,4893.65 5894.21,4892.35 5896.08,4890.05"/>
    </edge>
    <edge id=":11332314283_7" function="internal">
        <lane id=":11332314283_7_0" index="0" disallow="tram rail_urban rail rail_electric rail_fast ship container cable_car subway aircraft wheelchair scooter drone" speed="13.89" length="16.10" shape="5886.23,4893.26 5901.32,4898.86"/>
    </edge>
    <edge id=":11332314283_8" function="internal">
        <lane id=":11332314283_8_0" index="0" disallow="tram rail_urban rail rail_electric rail_fast ship container cable_car subway aircraft wheelchair scooter drone" speed="7.59" length="4.41" shape="5886.23,4893.26 5890.12,4895.34"/>
    </edge>
    <edge id=":11332314283_13" function="internal">
        <lane id=":11332314283_13_0" index="0" disallow="tram rail_urban rail rail_electric rail_fast ship container cable_car subway aircraft wheelchair scooter drone" speed="7.59" length="10.98" shape="5890.12,4895.34 5892.02,4898.02 5891.93,4901.31 5889.86,4905.20"/>
    </edge>
    <edge id=":11332314283_9" function="internal">
        <lane id=":11332314283_9_0" index="0" disallow="tram rail_urban rail rail_electric rail_fast ship container cable_car subway aircraft wheelchair scooter drone" speed="5.98" length="9.08" shape="5887.28,4903.31 5888.50,4901.02 5888.55,4899.08 5887.43,4897.49 5885.14,4896.27"/>
    </edge>
    <edge id=":11332314283_10" function="internal">
        <lane id=":11332314283_10_0" index="0" disallow="tram rail_urban rail rail_electric rail_fast ship container cable_car subway aircraft wheelchair scooter drone" speed="13.89" length="15.92" shape="5887.28,4903.31 5889.54,4900.14 5891.82,4896.78 5894.04,4893.37 5896.08,4890.05"/>
    </edge>
    <edge id=":11332314283_11" function="internal">
        <lane id=":11332314283_11_0" index="0" disallow="tram rail_urban rail rail_electric rail_fast ship container cable_car subway aircraft wheelchair scooter drone" speed="9.43" length="15.98" shape="5887.28,4903.31 5890.25,4900.17 5893.58,4898.37 5897.27,4897.94 5901.32,4898.86"/>
    </edge>
    <edge id=":11332314287_0" function="internal">
        <lane id=":11332314287_0_0" index="0" disallow="tram rail_urban rail rail_electric rail_fast ship container cable_car subway aircraft wheelchair scooter drone" speed="8.68" length="11.63" shape="5728.50,4833.25 5726.11,4832.73 5723.57,4833.15 5720.90,4834.51 5718.10,4836.80"/>
    </edge>
    <edge id=":11332314287_1" function="internal">
        <lane id=":11332314287_1_0" index="0" disallow="tram rail_urban rail rail_electric rail_fast ship container cable_car subway aircraft wheelchair scooter drone" speed="13.89" length="15.08" shape="5728.50,4833.25 5714.51,4827.62"/>
    </edge>
    <edge id=":11332314287_2" function="internal">
        <lane id=":11332314287_2_0" index="0" disallow="tram rail_urban rail rail_electric rail_fast ship container cable_car subway aircraft wheelchair scooter drone" speed="13.89" length="15.17" shape="5715.67,4824.64 5729.75,4830.30"/>
    </edge>
    <edge id=":11332314287_3" function="internal">
        <lane id=":11332314287_3_0" index="0" disallow="tram rail_urban rail rail_electric rail_fast ship container cable_car subway aircraft wheelchair scooter drone" speed="7.45" length="4.78" shape="5715.67,4824.64 5719.85,4826.97"/>
    </edge>
    <edge id=":11332314287_6" function="internal">
        <lane id=":11332314287_6_0" index="0" disallow="tram rail_urban rail rail_electric rail_fast ship container cable_car subway aircraft wheelchair scooter drone" speed="7.45" length="11.44" shape="5719.85,4826.97 5721.65,4829.77 5721.07,4833.04 5718.10,4836.80"/>
    </edge>
    <edge id=":11332314287_4" function="internal">
        <lane id=":11332314287_4_0" index="0" disallow="tram rail_urban rail rail_electric rail_fast ship container cable_car subway aircraft wheelchair scooter drone" speed="5.77" length="9.16" shape="5715.88,4834.49 5717.56,4832.37 5717.89,4830.52 5716.87,4828.94 5714.51,4827.62"/>
    </edge>
    <edge id=":11332314287_5" function="internal">
        <lane id=":11332314287_5_0" index="0" disallow="tram rail_urban rail rail_electric rail_fast ship container cable_car subway aircraft wheelchair scooter drone" speed="9.90" length="15.36" shape="5715.88,4834.49 5719.47,4831.61 5722.98,4829.96 5726.41,4829.52 5729.75,4830.30"/>
    </edge>
    <edge id=":11332314290_0" function="internal">
        <lane id=":11332314290_0_0" index="0" disallow="tram rail_urban rail rail_electric rail_fast ship container cable_car subway aircraft wheelchair scooter drone" speed="27.78" length="14.47" shape="5650.68,4937.65 5636.69,4933.95"/>
    </edge>
    <edge id=":11332314290_1" function="internal">
        <lane id=":11332314290_1_0" index="0" disallow="tram rail_urban rail rail_electric rail_fast ship container cable_car subway aircraft wheelchair scooter drone" speed="7.76" length="4.13" shape="5650.68,4937.65 5646.87,4936.03"/>
    </edge>
    <edge id=":11332314290_6" function="internal">
        <lane id=":11332314290_6_0" index="0" disallow="tram rail_urban rail rail_electric rail_fast ship container cable_car subway aircraft wheelchair scooter drone" speed="7.76" length="10.64" shape="5646.87,4936.03 5644.69,4933.62 5644.13,4930.42 5645.19,4926.42"/>
    </edge>
    <edge id=":11332314290_2" function="internal">
        <lane id=":11332314290_2_0" index="0" disallow="tram rail_urban rail rail_electric rail_fast ship container cable_car subway aircraft wheelchair scooter drone" speed="6.22" length="9.05" shape="5648.13,4927.68 5647.48,4930.12 5647.83,4932.08 5649.16,4933.56 5651.49,4934.55"/>
    </edge>
    <edge id=":11332314290_3" function="internal">
        <lane id=":11332314290_3_0" index="0" disallow="tram rail_urban rail rail_electric rail_fast ship container cable_car subway aircraft wheelchair scooter drone" speed="8.52" length="14.44" shape="5648.13,4927.68 5646.08,4931.20 5643.49,4933.42 5640.36,4934.34 5636.69,4933.95"/>
    </edge>
    <edge id=":11332314290_4" function="internal">
        <lane id=":11332314290_4_0" index="0" disallow="tram rail_urban rail rail_electric rail_fast ship container cable_car subway aircraft wheelchair scooter drone" speed="7.13" length="9.81" shape="5637.51,4930.85 5639.94,4931.09 5642.03,4930.43 5643.78,4928.88 5645.19,4926.42"/>
    </edge>
    <edge id=":11332314290_5" function="internal">
        <lane id=":11332314290_5_0" index="0" disallow="tram rail_urban rail rail_electric rail_fast ship container cable_car subway aircraft wheelchair scooter drone" speed="27.78" length="14.47" shape="5637.51,4930.85 5651.49,4934.55"/>
    </edge>
    <edge id=":11364020892_0" function="internal">
        <lane id=":11364020892_0_0" index="0" disallow="tram rail_urban rail rail_electric rail_fast ship container cable_car subway aircraft wheelchair scooter drone" speed="6.40" length="9.04" shape="4680.68,4173.17 4678.60,4171.80 4676.60,4171.46 4674.70,4172.14 4672.88,4173.84"/>
    </edge>
    <edge id=":11364020892_1" function="internal">
        <lane id=":11364020892_1_0" index="0" disallow="tram rail_urban rail rail_electric rail_fast ship container cable_car subway aircraft wheelchair scooter drone" speed="27.78" length="14.41" shape="4680.68,4173.17 4669.89,4163.63"/>
    </edge>
    <edge id=":11364020892_2" function="internal">
        <lane id=":11364020892_2_0" index="0" disallow="tram rail_urban rail rail_electric rail_fast ship container cable_car subway aircraft wheelchair scooter drone" speed="27.78" length="14.41" shape="4672.01,4161.23 4682.80,4170.77"/>
    </edge>
    <edge id=":11364020892_3" function="internal">
        <lane id=":11364020892_3_0" index="0" disallow="tram rail_urban rail rail_electric rail_fast ship container cable_car subway aircraft wheelchair scooter drone" speed="8.16" length="3.99" shape="4672.01,4161.23 4674.47,4164.15 4674.52,4164.31"/>
    </edge>
    <edge id=":11364020892_6" function="internal">
        <lane id=":11364020892_6_0" index="0" disallow="tram rail_urban rail rail_electric rail_fast ship container cable_car subway aircraft wheelchair scooter drone" speed="8.16" length="10.27" shape="4674.52,4164.31 4675.44,4167.22 4674.91,4170.45 4672.88,4173.84"/>
    </edge>
    <edge id=":11364020892_4" function="internal">
        <lane id=":11364020892_4_0" index="0" disallow="tram rail_urban rail rail_electric rail_fast ship container cable_car subway aircraft wheelchair scooter drone" speed="6.70" length="9.28" shape="4670.38,4171.84 4671.72,4169.62 4672.08,4167.51 4671.47,4165.52 4669.89,4163.63"/>
    </edge>
    <edge id=":11364020892_5" function="internal">
        <lane id=":11364020892_5_0" index="0" disallow="tram rail_urban rail rail_electric rail_fast ship container cable_car subway aircraft wheelchair scooter drone" speed="7.92" length="14.38" shape="4670.38,4171.84 4673.28,4169.13 4676.31,4168.05 4679.49,4168.60 4682.80,4170.77"/>
    </edge>
    <edge id=":11364020895_0" function="internal">
        <lane id=":11364020895_0_0" index="0" disallow="tram rail_urban rail rail_electric rail_fast ship container cable_car subway aircraft wheelchair scooter drone" speed="8.71" length="11.60" shape="4469.79,4051.70 4469.04,4048.18 4467.80,4045.47 4466.09,4043.55 4463.91,4042.45"/>
    </edge>
    <edge id=":11364020895_1" function="internal">
        <lane id=":11364020895_1_0" index="0" disallow="tram rail_urban rail rail_electric rail_fast ship container cable_car subway aircraft wheelchair scooter drone" speed="7.46" length="16.16" shape="4469.79,4051.70 4469.82,4046.95 4471.40,4044.02 4474.54,4042.93 4479.24,4043.67"/>
    </edge>
    <edge id=":11364020895_2" function="internal">
        <lane id=":11364020895_2_0" index="0" disallow="tram rail_urban rail rail_electric rail_fast ship container cable_car subway aircraft wheelchair scooter drone" speed="5.78" length="9.15" shape="4478.32,4046.73 4475.66,4046.31 4473.88,4046.93 4472.98,4048.59 4472.97,4051.28"/>
    </edge>
    <edge id=":11364020895_3" function="internal">
        <lane id=":11364020895_3_0" index="0" disallow="tram rail_urban rail rail_electric rail_fast ship container cable_car subway aircraft wheelchair scooter drone" speed="27.78" length="15.03" shape="4478.32,4046.73 4463.91,4042.45"/>
    </edge>
    <edge id=":11364020895_4" function="internal">
        <lane id=":11364020895_4_0" index="0" disallow="tram rail_urban rail rail_electric rail_fast ship container cable_car subway aircraft wheelchair scooter drone" speed="27.78" length="15.06" shape="4464.80,4039.37 4479.24,4043.67"/>
    </edge>
    <edge id=":11364020895_5" function="internal">
        <lane id=":11364020895_5_0" index="0" disallow="tram rail_urban rail rail_electric rail_fast ship container cable_car subway aircraft wheelchair scooter drone" speed="9.93" length="3.63" shape="4464.80,4039.37 4467.88,4040.86 4468.03,4041.02"/>
    </edge>
    <edge id=":11364020895_6" function="internal">
        <lane id=":11364020895_6_0" index="0" disallow="tram rail_urban rail rail_electric rail_fast ship container cable_car subway aircraft wheelchair scooter drone" speed="9.93" length="11.67" shape="4468.03,4041.02 4470.27,4043.35 4471.96,4046.82 4472.97,4051.28"/>
    </edge>
    <edge id=":11364020899_0" function="internal">
        <lane id=":11364020899_0_0" index="0" disallow="tram rail_urban rail rail_electric rail_fast ship container cable_car subway aircraft wheelchair scooter drone" speed="7.01" length="9.67" shape="4856.71,4360.42 4854.96,4358.72 4852.94,4357.94 4850.65,4358.09 4848.10,4359.17"/>
    </edge>
    <edge id=":11364020899_1" function="internal">
        <lane id=":11364020899_1_0" index="0" disallow="tram rail_urban rail rail_electric rail_fast ship container cable_car subway aircraft wheelchair scooter drone" speed="27.78" length="10.45" shape="4856.71,4360.42 4850.45,4352.06"/>
    </edge>
    <edge id=":11364020899_2" function="internal">
        <lane id=":11364020899_2_0" index="0" disallow="tram rail_urban rail rail_electric rail_fast ship container cable_car subway aircraft wheelchair scooter drone" speed="27.78" length="10.45" shape="4853.01,4350.14 4859.27,4358.51"/>
    </edge>
    <edge id=":11364020899_3" function="internal">
        <lane id=":11364020899_3_0" index="0" disallow="tram rail_urban rail rail_electric rail_fast ship container cable_car subway aircraft wheelchair scooter drone" speed="7.04" length="2.37" shape="4853.01,4350.14 4853.93,4352.33"/>
    </edge>
    <edge id=":11364020899_6" function="internal">
        <lane id=":11364020899_6_0" index="0" disallow="tram rail_urban rail rail_electric rail_fast ship container cable_car subway aircraft wheelchair scooter drone" speed="7.04" length="9.38" shape="4853.93,4352.33 4853.41,4354.57 4851.47,4356.85 4848.10,4359.17"/>
    </edge>
    <edge id=":11364020899_4" function="internal">