<additional>
    <poly id="building_0" type="building" color="200,200,200" fill="true" layer="2" shape="5850.67,6010.29 5849.58,5994.42 5892.92,5968.71 5904.89,5993.52 5850.67,6010.29"/>
    <poly id="building_1" type="building" color="200,200,200" fill="true" layer="2" shape="6794.48,3939.04 6793.46,3927.13 6812.19,3925.55 6813.43,3940.05 6802.66,3940.96 6800.61,3938.52 6794.48,3939.04"/>
    <poly id="water_2" type="water" color="170,211,223" fill="true" layer="0" shape="4599.28,3358.32 4594.62,3356.95 4590.73,3355.77 4587.03,3355.94 4581.96,3358.24 4578.83,3360.54 4575.52,3360.53 4572.41,3358.78 4570.67,3356.06 4569.90,3353.16 4570.12,3349.68 4572.85,3349.10 4578.12,3346.62 4584.96,3341.04 4589.46,3336.03 4593.58,3331.60 4597.28,3331.03 4599.01,3333.56 4600.17,3336.27 4602.50,3338.60 4605.41,3340.16 4606.77,3341.72 4605.76,3346.75 4604.19,3350.61 4601.06,3354.85 4599.28,3358.32"/>
    <poly id="water_3" type="water" color="170,211,223" fill="true" layer="0" shape="6401.35,4839.71 6434.18,4854.32 6468.80,4866.58 6478.80,4869.44 6488.30,4871.28 6495.51,4868.76 6505.32,4857.31 6506.11,4854.25 6503.03,4852.71 6497.90,4851.67 6496.88,4849.61 6488.92,4849.07 6464.76,4849.46 6458.09,4847.89 6446.56,4840.69 6429.15,4828.62 6422.22,4826.03 6419.39,4827.80 6414.76,4828.55 6409.89,4825.72 6398.28,4819.62 6389.13,4832.94 6401.35,4839.71"/>
    <poly id="water_4" type="water" color="170,211,223" fill="true" layer="0" shape="8145.49,3654.56 8170.49,3665.93 8179.20,3666.90 8187.55,3671.13 8189.76,3671.00 8193.16,3669.55 8192.18,3662.98 8189.59,3661.25 8184.93,3661.59 8182.29,3660.26 8180.83,3657.61 8177.34,3646.59 8180.17,3640.60 8180.95,3632.40 8179.23,3631.68 8175.63,3629.87 8171.95,3630.05 8169.76,3630.81 8166.53,3634.75 8162.66,3637.80 8158.80,3639.69 8156.10,3639.81 8153.91,3641.20 8152.09,3643.62 8150.68,3645.27 8149.65,3647.18 8147.57,3650.61 8146.79,3652.14 8145.49,3654.56"/>
    <poly id="building_5" type="building" color="200,200,200" fill="true" layer="2" shape="6204.23,4834.37 6199.15,4849.07 6213.10,4855.14 6211.80,4867.58 6230.55,4873.27 6230.40,4860.83 6243.13,4861.30 6245.16,4849.41 6204.23,4834.37"/>
    <poly id="building_6" type="building" color="200,200,200" fill="true" layer="2" shape="6736.93,3724.03 6753.69,3734.25 6764.91,3711.92 6744.51,3707.35 6736.93,3724.03"/>
    <poly id="building_7" type="building" color="200,200,200" fill="true" layer="2" shape="6715.99,3769.28 6737.25,3780.42 6744.55,3757.47 6724.17,3753.20 6720.86,3754.38 6715.99,3769.28"/>
    <poly id="building_8" type="building" color="200,200,200" fill="true" layer="2" shape="6736.00,3853.40 6747.29,3857.99 6742.28,3870.18 6730.98,3865.59 6736.00,3853.40"/>
    <poly id="building_9" type="building" color="200,200,200" fill="true" layer="2" shape="6224.86,5092.14 6221.43,5101.81 6215.70,5100.76 6203.62,5098.56 6207.43,5087.21 6224.86,5092.14"/>
    <poly id="building_10" type="building" color="200,200,200" fill="true" layer="2" shape="6197.56,5111.58 6202.12,5098.37 6215.70,5100.76 6211.63,5113.51 6197.56,5111.58"/>
    <poly id="building_11" type="building" color="200,200,200" fill="true" layer="2" shape="6132.32,5191.55 6090.59,5176.91 6092.46,5165.90 6136.56,5179.47 6132.32,5191.55"/>
    <poly id="building_12" type="building" color="200,200,200" fill="true" layer="2" shape="6093.38,5164.82 6095.42,5154.00 6142.99,5165.42 6139.29,5179.31 6093.38,5164.82"/>
    <poly id="building_13" type="building" color="200,200,200" fill="true" layer="2" shape="6142.75,5163.85 6136.37,5162.26 6112.12,5156.22 6112.80,5150.79 6107.35,5149.34 6108.69,5138.49 6139.31,5145.97 6137.00,5156.81 6144.70,5158.76 6142.75,5163.85"/>
    <poly id="building_14" type="building" color="200,200,200" fill="true" layer="2" shape="6150.90,5104.01 6155.18,5082.00 6163.34,5085.47 6166.59,5091.08 6163.79,5106.95 6150.90,5104.01"/>
    <poly id="building_15" type="building" color="200,200,200" fill="true" layer="2" shape="6135.66,5099.06 6139.59,5075.97 6150.47,5080.53 6146.18,5102.55 6135.66,5099.06"/>
    <poly id="building_16" type="building" color="200,200,200" fill="true" layer="2" shape="6022.63,5285.40 6049.62,5304.85 6058.03,5294.96 6053.33,5286.99 6041.37,5279.71 6033.04,5274.80 6022.63,5285.40"/>
    <poly id="building_17" type="building" color="200,200,200" fill="true" layer="2" shape="6016.57,5299.28 6024.60,5291.55 6038.37,5300.82 6047.07,5307.19 6038.84,5315.09 6016.57,5299.28"/>
    <poly id="building_18" type="building" color="200,200,200" fill="true" layer="2" shape="5962.08,5263.25 5967.15,5253.05 5974.52,5254.92 5977.95,5256.78 5975.26,5265.93 5962.08,5263.25"/>
    <poly id="building_19" type="building" color="200,200,200" fill="true" layer="2" shape="6002.54,5245.88 6007.87,5235.95 6018.40,5240.71 6011.74,5251.43 6002.54,5245.88"/>
    <poly id="building_20" type="building" color="200,200,200" fill="true" layer="2" shape="5986.24,5233.22 5987.07,5225.36 5996.30,5226.71 5995.47,5234.84 5986.24,5233.22"/>
    <poly id="building_21" type="building" color="200,200,200" fill="true" layer="2" shape="6027.67,5231.85 6032.73,5224.26 6035.63,5224.28 6038.28,5221.15 6048.81,5224.60 6045.62,5231.93 6042.95,5237.16 6027.67,5231.85"/>
    <poly id="building_22" type="building" color="200,200,200" fill="true" layer="2" shape="6010.67,5201.36 6015.49,5185.91 6029.47,5188.08 6038.42,5190.21 6037.33,5197.03 6027.31,5195.93 6025.17,5203.00 6010.67,5201.36"/>
    <poly id="building_23" type="building" color="200,200,200" fill="true" layer="2" shape="6058.56,5173.54 6063.08,5164.38 6073.11,5166.00 6066.19,5176.98 6058.56,5173.54"/>
    <poly id="building_24" type="building" color="200,200,200" fill="true" layer="2" shape="6064.98,5266.36 6072.15,5256.96 6082.15,5262.77 6077.37,5268.52 6073.95,5265.35 6071.29,5270.85 6064.98,5266.36"/>
    <poly id="building_25" type="building" color="200,200,200" fill="true" layer="2" shape="6138.74,5123.59 6142.76,5111.02 6159.37,5115.03 6157.72,5130.23 6156.08,5141.23 6140.78,5139.59 6138.74,5123.59"/>
    <poly id="building_26" type="building" color="200,200,200" fill="true" layer="2" shape="6117.38,5098.73 6121.48,5070.73 6115.44,5068.39 6112.03,5097.77 6117.38,5098.73"/>
    <poly id="building_27" type="building" color="200,200,200" fill="true" layer="2" shape="6082.98,5080.29 6085.55,5058.86 6092.91,5063.04 6090.93,5082.77 6082.98,5080.29"/>
    <poly id="building_28" type="building" color="200,200,200" fill="true" layer="2" shape="6090.93,5082.77 6093.30,5068.06 6094.05,5063.42 6104.83,5066.29 6103.85,5073.62 6096.08,5073.39 6095.27,5084.30 6090.93,5082.77"/>
    <poly id="building_29" type="building" color="200,200,200" fill="true" layer="2" shape="4440.64,5704.43 4453.77,5694.83 4447.72,5687.26 4440.84,5691.76 4434.91,5695.65 4440.64,5704.43"/>
    <poly id="industrial_30" type="industrial" color="235,219,233" fill="true" layer="-1" shape="4742.17,5773.16 4715.68,5715.04 4766.87,5694.13 4783.02,5751.61 4742.17,5773.16"/>
    <poly id="building_31" type="building" color="200,200,200" fill="true" layer="2" shape="6056.87,5082.61 6062.30,5053.94 6072.86,5055.39 6068.13,5086.51 6056.87,5082.61"/>
    <poly id="building_32" type="building" color="200,200,200" fill="true" layer="2" shape="5904.48,5125.34 5909.35,5109.51 5933.26,5115.97 5923.99,5134.55 5904.48,5125.34"/>
    <poly id="building_33" type="building" color="200,200,200" fill="true" layer="2" shape="5866.01,5114.67 5874.89,5090.93 5882.07,5093.74 5873.57,5117.87 5866.01,5114.67"/>
    <poly id="building_34" type="building" color="200,200,200" fill="true" layer="2" shape="5884.44,5096.92 5890.09,5083.08 5908.80,5092.68 5899.96,5104.92 5884.44,5096.92"/>
    <poly id="building_35" type="building" color="200,200,200" fill="true" layer="2" shape="5889.82,5058.51 5893.04,5052.19 5923.29,5065.40 5921.27,5070.95 5889.82,5058.51"/>
    <poly id="building_36" type="building" color="200,200,200" fill="true" layer="2" shape="5934.76,5085.67 5942.51,5050.83 5956.85,5053.27 5947.50,5090.09 5934.76,5085.67"/>
    <poly id="building_37" type="building" color="200,200,200" fill="true" layer="2" shape="5904.35,5049.23 5912.85,5023.91 5929.17,5029.13 5917.10,5052.85 5904.35,5049.23"/>
    <poly id="building_38" type="building" color="200,200,200" fill="true" layer="2" shape="6299.06,4811.16 6328.51,4740.76 6334.51,4738.81 6348.06,4743.23 6308.61,4816.36 6299.06,4811.16"/>
    <poly id="building_39" type="building" color="200,200,200" fill="true" layer="2" shape="6420.29,4458.61 6425.68,4449.65 6428.54,4452.52 6424.82,4457.81 6420.29,4458.61"/>
    <poly id="building_40" type="building" color="200,200,200" fill="true" layer="2" shape="5813.43,5577.70 5814.60,5567.42 5831.96,5569.73 5833.44,5552.20 5841.28,5552.79 5838.62,5582.56 5829.94,5582.24 5830.79,5578.06 5813.43,5577.70"/>
    <poly id="building_41" type="building" color="200,200,200" fill="true" layer="2" shape="5780.60,5532.47 5769.20,5517.67 5775.38,5513.53 5778.72,5516.33 5795.03,5502.78 5791.97,5497.20 5797.88,5493.61 5811.54,5507.02 5807.88,5510.62 5804.81,5507.27 5784.29,5523.31 5787.91,5526.94 5780.60,5532.47"/>
    <poly id="building_42" type="building" color="200,200,200" fill="true" layer="2" shape="5809.12,5485.59 5799.85,5491.67 5814.89,5507.32 5841.89,5484.91 5836.59,5478.48 5817.20,5494.53 5809.12,5485.59"/>
    <poly id="building_43" type="building" color="200,200,200" fill="true" layer="2" shape="5780.01,5481.83 5785.91,5476.57 5798.46,5489.99 5791.43,5494.41 5780.01,5481.83"/>
    <poly id="building_44" type="building" color="200,200,200" fill="true" layer="2" shape="5869.01,5459.91 5873.82,5449.93 5886.40,5453.88 5881.29,5468.60 5871.23,5465.21 5869.01,5459.91"/>
    <poly id="building_45" type="building" color="200,200,200" fill="true" layer="2" shape="6304.96,5204.01 6285.68,5189.42 6294.93,5178.76 6306.30,5190.78 6313.29,5187.04 6321.80,5197.79 6323.40,5194.33 6328.55,5178.61 6340.57,5184.02 6344.98,5190.65 6333.17,5206.67 6336.56,5227.47 6329.21,5237.83 6307.45,5214.10 6304.96,5204.01"/>
    <poly id="building_46" type="building" color="200,200,200" fill="true" layer="2" shape="6028.78,5129.92 6026.94,5117.94 6040.57,5119.26 6041.16,5129.34 6028.78,5129.92"/>
    <poly id="building_47" type="building" color="200,200,200" fill="true" layer="2" shape="6047.24,5379.75 6051.19,5365.32 6068.61,5369.26 6071.49,5374.08 6065.17,5381.27 6060.77,5386.06 6047.24,5379.75"/>
    <poly id="building_48" type="building" color="200,200,200" fill="true" layer="2" shape="6077.46,5340.89 6084.32,5325.52 6109.49,5333.35 6109.44,5342.49 6101.65,5349.19 6077.46,5340.89"/>
    <poly id="building_49" type="building" color="200,200,200" fill="true" layer="2" shape="6093.07,5321.23 6091.69,5305.34 6108.75,5283.76 6126.60,5300.69 6119.26,5317.02 6090.63,5324.11 6093.07,5321.23"/>
    <poly id="building_50" type="building" color="200,200,200" fill="true" layer="2" shape="5394.53,4955.46 5407.87,4945.02 5408.21,4955.91 5405.02,4967.16 5394.53,4955.46"/>
    <poly id="building_51" type="building" color="200,200,200" fill="true" layer="2" shape="5246.32,5028.20 5265.13,5019.74 5274.49,5025.61 5271.34,5031.42 5262.31,5037.60 5254.87,5039.50 5246.32,5028.20"/>
    <poly id="building_52" type="building" color="200,200,200" fill="true" layer="2" shape="5338.34,5006.48 5333.31,4994.80 5343.52,4988.24 5349.72,4998.37 5338.34,5006.48"/>
    <poly id="building_53" type="building" color="200,200,200" fill="true" layer="2" shape="6263.39,4488.94 6249.54,4449.52 6295.69,4448.25 6301.87,4413.90 6309.42,4407.95 6346.00,4416.10 6344.78,4460.94 6304.67,4459.75 6310.53,4491.17 6304.01,4491.14 6299.01,4486.62 6263.39,4488.94"/>
    <poly id="building_54" type="building" color="200,200,200" fill="true" layer="2" shape="4282.82,4110.50 4300.26,4110.98 4300.75,4094.05 4286.54,4096.81 4282.82,4110.50"/>
    <poly id="building_55" type="building" color="200,200,200" fill="true" layer="2" shape="8221.33,3240.12 8233.64,3242.23 8235.25,3231.01 8224.98,3228.91 8221.33,3240.12"/>
    <poly id="building_56" type="building" color="200,200,200" fill="true" layer="2" shape="8501.14,3294.57 8510.92,3291.05 8508.97,3270.10 8496.09,3275.15 8501.14,3294.57"/>
    <poly id="building_57" type="building" color="200,200,200" fill="true" layer="2" shape="8459.36,3488.53 8462.11,3469.78 8471.25,3471.28 8471.23,3474.22 8475.07,3474.53 8475.01,3487.43 8470.57,3488.58 8467.03,3490.91 8459.36,3488.53"/>
    <poly id="water_58" type="water" color="170,211,223" fill="true" layer="0" shape="5195.44,4414.96 5192.41,4419.02 5186.88,4413.72 5191.49,4408.94 5195.44,4414.96"/>
    <poly id="water_59" type="water" color="170,211,223" fill="true" layer="0" shape="4558.08,4281.16 4548.61,4295.90 4573.74,4311.85 4583.22,4297.11 4558.08,4281.16"/>
    <poly id="water_60" type="water" color="170,211,223" fill="true" layer="0" shape="6405.38,6066.56 6396.26,6058.89 6388.71,6032.76 6383.45,6021.60 6394.98,6018.42 6405.02,6017.00 6411.44,6033.16 6418.44,6050.49 6423.40,6062.54 6413.92,6071.00 6405.38,6066.56"/>
    <poly id="water_61" type="water" color="170,211,223" fill="true" layer="0" shape="5520.22,5947.55 5534.28,5968.73 5547.33,5957.06 5554.46,5945.37 5540.35,5934.75 5520.22,5947.55"/>
    <poly id="water_62" type="water" color="170,211,223" fill="true" layer="0" shape="6166.75,5360.80 6164.12,5353.62 6161.47,5351.73 6160.38,5348.31 6163.22,5346.14 6168.38,5348.97 6170.10,5351.78 6174.31,5354.13 6172.57,5356.93 6166.75,5360.80"/>
    <poly id="water_63" type="water" color="170,211,223" fill="true" layer="0" shape="5556.96,5347.34 5565.66,5348.41 5569.27,5334.36 5558.95,5332.11 5556.96,5347.34"/>
    <poly id="water_64" type="water" color="170,211,223" fill="true" layer="0" shape="5115.84,5914.38 5102.26,5914.02 5108.27,5890.59 5113.01,5889.73 5122.13,5895.34 5122.96,5906.78 5119.68,5915.57 5115.84,5914.38"/>
    <poly id="water_65" type="water" color="170,211,223" fill="true" layer="0" shape="4285.38,6082.99 4295.37,6088.28 4303.83,6085.70 4305.45,6077.32 4298.12,6063.14 4293.96,6053.17 4286.59,6049.99 4289.16,6063.63 4287.02,6069.90 4285.38,6082.99"/>
    <poly id="water_66" type="water" color="170,211,223" fill="true" layer="0" shape="7041.80,5127.34 7024.30,5129.60 7029.87,5149.36 7034.58,5153.14 7040.23,5159.74 7043.52,5164.93 7048.71,5164.02 7046.88,5150.85 7046.48,5136.75 7041.80,5127.34"/>
    <poly id="water_67" type="water" color="170,211,223" fill="true" layer="0" shape="4846.04,3282.72 4859.12,3287.43 4865.74,3271.03 4859.83,3269.15 4859.17,3277.51 4855.10,3278.11 4850.47,3269.41 4846.04,3282.72"/>
    <poly id="water_68" type="water" color="170,211,223" fill="true" layer="0" shape="6339.14,3817.82 6329.41,3828.82 6337.60,3838.07 6350.21,3828.10 6339.14,3817.82"/>
    <poly id="water_69" type="water" color="170,211,223" fill="true" layer="0" shape="6026.96,4904.83 6054.62,4906.84 6060.69,4871.39 6031.40,4867.03 6026.96,4904.83"/>
    <poly id="water_70" type="water" color="170,211,223" fill="true" layer="0" shape="6813.99,4674.11 6814.13,4693.13 6826.41,4694.84 6828.16,4676.29 6813.99,4674.11"/>
    <poly id="water_71" type="water" color="170,211,223" fill="true" layer="0" shape="7110.99,4437.23 7107.41,4433.96 7104.91,4435.50 7105.05,4438.13 7104.89,4440.61 7103.32,4441.53 7102.52,4445.40 7106.89,4445.26 7108.77,4442.17 7112.04,4444.51 7115.00,4445.30 7116.57,4443.14 7118.30,4441.29 7118.46,4438.81 7113.95,4436.16 7110.99,4437.23"/>
    <poly id="water_72" type="water" color="170,211,223" fill="true" layer="0" shape="6920.47,3394.43 6906.68,3409.64 6923.84,3432.27 6941.67,3412.15 6920.47,3394.43"/>
    <poly id="building_73" type="building" color="200,200,200" fill="true" layer="2" shape="7129.70,5582.26 7142.97,5585.34 7147.49,5566.16 7134.22,5563.08 7129.70,5582.26"/>
    <poly id="building_74" type="building" color="200,200,200" fill="true" layer="2" shape="6529.23,5335.90 6552.09,5341.08 6554.62,5330.08 6531.74,5324.91 6529.23,5335.90"/>
    <poly id="building_75" type="building" color="200,200,200" fill="true" layer="2" shape="6254.11,5128.29 6265.38,5133.85 6273.43,5117.76 6262.15,5112.20 6254.11,5128.29"/>
    <poly id="building_76" type="building" color="200,200,200" fill="true" layer="2" shape="6211.59,4914.92 6209.66,4922.83 6215.17,4924.15 6214.33,4927.61 6223.12,4929.73 6225.89,4918.35 6211.59,4914.92"/>
    <poly id="building_77" type="building" color="200,200,200" fill="true" layer="2" shape="6303.74,5302.69 6316.60,5310.91 6324.92,5298.04 6312.08,5289.84 6303.74,5302.69"/>
    <poly id="building_78" type="building" color="200,200,200" fill="true" layer="2" shape="6282.17,4843.56 6308.46,4853.25 6311.58,4844.90 6305.40,4842.62 6311.85,4825.36 6291.75,4817.94 6282.17,4843.56"/>
    <poly id="building_79" type="building" color="200,200,200" fill="true" layer="2" shape="6242.03,4845.71 6250.86,4848.46 6254.46,4837.04 6245.62,4834.29 6242.03,4845.71"/>
    <poly id="building_80" type="building" color="200,200,200" fill="true" layer="2" shape="6436.38,5371.64 6446.24,5376.97 6454.57,5361.77 6444.72,5356.44 6436.38,5371.64"/>
    <poly id="building_81" type="building" color="200,200,200" fill="true" layer="2" shape="4347.74,4017.56 4363.02,4018.53 4362.87,4042.96 4358.34,4047.63 4347.87,4046.16 4347.74,4017.56"/>
    <poly id="building_82" type="building" color="200,200,200" fill="true" layer="2" shape="4555.28,4276.06 4571.12,4284.16 4574.56,4277.51 4577.44,4278.98 4579.42,4275.18 4576.53,4273.69 4578.68,4269.53 4562.84,4261.44 4555.28,4276.06"/>
    <poly id="building_83" type="building" color="200,200,200" fill="true" layer="2" shape="7461.39,3221.66 7469.90,3224.11 7479.93,3189.72 7471.44,3187.27 7461.39,3221.66"/>
    <poly id="building_84" type="building" color="200,200,200" fill="true" layer="2" shape="7489.19,3234.40 7498.02,3237.97 7511.92,3204.06 7503.10,3200.49 7489.19,3234.40"/>
    <poly id="building_85" type="building" color="200,200,200" fill="true" layer="2" shape="6982.77,5618.90 6990.13,5614.76 6977.93,5589.43 6969.52,5593.69 6982.77,5618.90"/>
    <poly id="building_86" type="building" color="200,200,200" fill="true" layer="2" shape="6376.46,4412.49 6385.40,4413.04 6388.02,4396.93 6381.88,4396.69 6381.74,4407.62 6376.18,4408.26 6376.46,4412.49"/>
    <poly id="building_87" type="building" color="200,200,200" fill="true" layer="2" shape="7534.42,4294.28 7540.97,4265.99 7586.67,4272.40 7577.93,4297.27 7534.42,4294.28"/>
    <poly id="building_88" type="building" color="200,200,200" fill="true" layer="2" shape="7544.81,4261.42 7548.51,4243.10 7598.64,4245.13 7588.31,4265.62 7544.81,4261.42"/>
    <poly id="building_89" type="building" color="200,200,200" fill="true" layer="2" shape="7544.12,4236.70 7585.45,4236.10 7585.08,4226.73 7545.57,4225.53 7544.12,4236.70"/>
    <poly id="water_90" type="water" color="170,211,223" fill="true" layer="0" shape="7999.04,5762.12 7984.45,5763.54 7984.50,5754.25 7999.45,5755.06 7999.04,5762.12"/>
    <poly id="water_91" type="water" color="170,211,223" fill="true" layer="0" shape="7760.16,3441.12 7747.84,3436.98 7752.77,3420.29 7766.95,3427.04 7760.16,3441.12"/>
    <poly id="water_92" type="water" color="170,211,223" fill="true" layer="0" shape="7798.59,4005.81 7799.69,4010.65 7794.44,4012.48 7794.10,4005.79 7798.59,4005.81"/>
    <poly id="water_93" type="water" color="170,211,223" fill="true" layer="0" shape="8327.32,3562.64 8337.43,3573.20 8342.05,3580.38 8345.39,3589.23 8354.30,3585.48 8360.29,3574.58 8327.32,3562.64"/>
    <poly id="water_94" type="water" color="170,211,223" fill="true" layer="0" shape="8063.06,3926.90 8052.89,3927.69 8045.71,3925.13 8052.10,3918.01 8055.93,3913.40 8063.06,3926.90"/>
    <poly id="water_95" type="water" color="170,211,223" fill="true" layer="0" shape="7849.04,3314.44 7847.94,3319.27 7839.79,3319.78 7829.50,3313.26 7834.40,3311.67 7849.04,3314.44"/>
    <poly id="water_96" type="water" color="170,211,223" fill="true" layer="0" shape="6851.89,5845.04 6845.16,5842.78 6837.69,5843.11 6839.53,5848.69 6846.24,5852.44 6849.24,5850.97 6851.89,5845.04"/>
    <poly id="water_97" type="water" color="170,211,223" fill="true" layer="0" shape="6320.47,5617.33 6315.66,5622.88 6307.79,5616.15 6312.60,5610.60 6320.47,5617.33"/>
    <poly id="water_98" type="water" color="170,211,223" fill="true" layer="0" shape="4297.42,4627.20 4282.92,4617.82 4273.48,4630.62 4297.42,4627.20"/>
    <poly id="water_99" type="water" color="170,211,223" fill="true" layer="0" shape="6818.22,3235.22 6810.78,3234.12 6808.08,3243.09 6814.46,3243.12 6819.78,3242.08 6818.22,3235.22"/>
    <poly id="water_100" type="water" color="170,211,223" fill="true" layer="0" shape="5085.08,3383.27 5119.39,3391.91 5116.52,3397.35 5111.61,3405.00 5107.73,3407.82 5081.32,3402.24 5085.08,3383.27"/>
    <poly id="building_101" type="building" color="200,200,200" fill="true" layer="2" shape="4999.02,4838.23 4997.87,4836.09 5001.39,4834.22 5002.54,4836.36 4999.02,4838.23"/>
    <poly id="building_102" type="building" color="200,200,200" fill="true" layer="2" shape="4617.76,4249.40 4624.82,4240.63 4635.12,4248.75 4631.01,4258.27 4617.76,4249.40"/>
    <poly id="building_103" type="building" color="200,200,200" fill="true" layer="2" shape="4510.27,4042.09 4511.11,4031.89 4531.23,4039.05 4529.20,4050.44 4510.27,4042.09"/>
    <poly id="building_104" type="building" color="200,200,200" fill="true" layer="2" shape="4497.03,4029.56 4500.06,4016.09 4510.08,4018.48 4511.11,4031.89 4497.03,4029.56"/>
    <poly id="building_105" type="building" color="200,200,200" fill="true" layer="2" shape="4366.68,3979.03 4379.55,3980.44 4378.59,3967.64 4366.73,3966.91 4366.68,3979.03"/>
    <poly id="building_106" type="building" color="200,200,200" fill="true" layer="2" shape="4580.86,4068.63 4593.04,4075.09 4595.43,4072.07 4593.40,4069.71 4598.86,4062.65 4588.38,4056.88 4580.86,4068.63"/>
    <poly id="building_107" type="building" color="200,200,200" fill="true" layer="2" shape="4479.13,3966.77 4483.99,3937.47 4510.83,3941.11 4515.19,3954.91 4510.10,3970.13 4479.13,3966.77"/>
    <poly id="building_108" type="building" color="200,200,200" fill="true" layer="2" shape="4812.56,4337.40 4824.79,4331.05 4820.09,4322.61 4808.53,4329.63 4812.56,4337.40"/>
    <poly id="building_109" type="building" color="200,200,200" fill="true" layer="2" shape="4760.93,4285.62 4775.91,4272.55 4782.99,4279.32 4770.73,4291.73 4760.93,4285.62"/>
    <poly id="building_110" type="building" color="200,200,200" fill="true" layer="2" shape="5100.84,4629.03 5109.42,4621.45 5112.37,4625.56 5114.73,4622.94 5120.61,4629.12 5109.34,4639.33 5100.84,4629.03"/>
    <poly id="building_111" type="building" color="200,200,200" fill="true" layer="2" shape="5083.46,4620.74 5090.51,4627.22 5097.94,4616.99 5092.64,4612.27 5083.46,4620.74"/>
    <poly id="building_112" type="building" color="200,200,200" fill="true" layer="2" shape="5010.73,4628.38 5017.84,4637.08 5024.58,4631.11 5017.92,4621.52 5010.73,4628.38"/>
    <poly id="building_113" type="building" color="200,200,200" fill="true" layer="2" shape="5005.15,4530.57 5015.26,4519.74 5022.61,4526.88 5015.62,4539.74 5005.15,4530.57"/>
    <poly id="building_114" type="building" color="200,200,200" fill="true" layer="2" shape="4873.87,4527.74 4885.06,4524.23 4881.31,4513.11 4871.45,4517.50 4873.87,4527.74"/>
    <poly id="building_115" type="building" color="200,200,200" fill="true" layer="2" shape="4958.22,4264.99 4957.59,4255.56 4971.49,4255.96 4971.45,4265.05 4958.22,4264.99"/>
    <poly id="building_116" type="building" color="200,200,200" fill="true" layer="2" shape="4895.03,4236.59 4894.77,4228.38 4905.12,4224.91 4910.38,4236.95 4895.03,4236.59"/>
    <poly id="building_117" type="building" color="200,200,200" fill="true" layer="2" shape="4551.78,3656.64 4549.00,3647.44 4562.91,3641.89 4569.79,3651.63 4551.78,3656.64"/>
    <poly id="building_118" type="building" color="200,200,200" fill="true" layer="2" shape="4285.56,4050.16 4285.35,4030.81 4298.92,4034.39 4300.32,4049.94 4285.56,4050.16"/>
    <poly id="building_119" type="building" color="200,200,200" fill="true" layer="2" shape="4536.00,3892.71 4536.03,3884.50 4551.97,3884.57 4552.82,3893.67 4536.00,3892.71"/>
    <poly id="building_120" type="building" color="200,200,200" fill="true" layer="2" shape="4574.16,3872.95 4573.04,3860.92 4587.50,3860.99 4588.91,3874.78 4574.16,3872.95"/>
    <poly id="building_121" type="building" color="200,200,200" fill="true" layer="2" shape="5746.80,5356.52 5751.30,5348.36 5764.07,5356.32 5760.41,5364.26 5746.80,5356.52"/>
    <poly id="building_122" type="building" color="200,200,200" fill="true" layer="2" shape="5728.21,5316.59 5729.52,5314.25 5732.55,5317.00 5731.15,5319.69 5728.21,5316.59"/>
    <poly id="building_123" type="building" color="200,200,200" fill="true" layer="2" shape="5095.78,5176.36 5095.99,5180.12 5102.61,5179.33 5100.21,5174.68 5095.78,5176.36"/>
    <poly id="building_124" type="building" color="200,200,200" fill="true" layer="2" shape="5094.92,5171.75 5093.75,5174.62 5097.15,5174.78 5097.78,5171.44 5094.92,5171.75"/>
    <poly id="building_125" type="building" color="200,200,200" fill="true" layer="2" shape="4576.45,5835.24 4576.58,5849.44 4591.46,5849.31 4591.53,5835.91 4576.45,5835.24"/>
    <poly id="building_126" type="building" color="200,200,200" fill="true" layer="2" shape="6228.38,5255.51 6228.38,5255.90 6228.77,5255.90 6228.75,5255.51 6228.38,5255.51"/>
    <poly id="water_127" type="water" color="170,211,223" fill="true" layer="0" shape="6397.36,3780.17 6404.13,3784.15 6409.56,3789.16 6413.69,3787.72 6416.09,3780.84 6419.66,3774.99 6408.61,3772.00 6399.89,3775.64 6397.07,3778.40 6397.36,3780.17"/>
    <poly id="building_128" type="building" color="200,200,200" fill="true" layer="2" shape="7747.02,5491.03 7748.03,5486.64 7754.86,5488.38 7752.29,5493.78 7747.02,5491.03"/>
    <poly id="building_129" type="building" color="200,200,200" fill="true" layer="2" shape="5999.26,5460.13 5993.41,5484.43 6034.83,5497.13 6044.19,5477.23 5999.26,5460.13"/>
    <poly id="building_130" type="building" color="200,200,200" fill="true" layer="2" shape="5550.57,5760.87 5543.38,5772.09 5556.24,5780.62 5566.03,5768.96 5550.57,5760.87"/>
    <poly id="building_131" type="building" color="200,200,200" fill="true" layer="2" shape="7892.17,5640.10 7892.39,5648.57 7905.78,5646.55 7906.09,5634.42 7892.17,5640.10"/>
    <poly id="building_132" type="building" color="200,200,200" fill="true" layer="2" shape="6917.93,3650.18 6928.04,3640.54 6943.49,3657.86 6933.32,3667.33 6917.93,3650.18"/>
    <poly id="building_133" type="building" color="200,200,200" fill="true" layer="2" shape="6946.17,3662.48 6953.04,3654.90 6958.26,3659.56 6951.39,3667.14 6946.17,3662.48"/>
    <poly id="building_134" type="building" color="200,200,200" fill="true" layer="2" shape="6953.67,3655.13 6955.16,3653.50 6959.39,3657.32 6957.90,3658.95 6953.67,3655.13"/>
    <poly id="building_135" type="building" color="200,200,200" fill="true" layer="2" shape="6935.58,3672.65 6938.62,3669.43 6945.03,3675.43 6941.98,3678.64 6935.58,3672.65"/>
    <poly id="education_136" type="education" color="255,255,228" fill="true" layer="-1" shape="6756.00,3941.21 6747.77,4034.15 6754.75,4041.84 6751.07,4075.96 6833.23,4051.43 6832.64,4041.01 6831.41,4036.11 6830.27,4034.16 6829.24,4028.62 6830.41,4021.44 6829.23,4014.72 6826.27,4008.29 6824.18,3999.62 6823.48,3988.52 6823.17,3984.04 6823.01,3980.07 6824.91,3960.37 6756.00,3941.21"/>
    <poly id="building_137" type="building" color="200,200,200" fill="true" layer="2" shape="6774.29,4041.95 6774.68,4030.93 6781.15,4031.16 6780.76,4042.18 6774.29,4041.95"/>
    <poly id="building_138" type="building" color="200,200,200" fill="true" layer="2" shape="6756.38,3968.58 6757.11,3944.00 6758.34,3942.83 6767.74,3949.47 6775.52,3958.34 6775.60,3963.09 6775.88,3963.54 6776.71,3963.70 6776.60,3970.17 6756.38,3968.58"/>
    <poly id="building_139" type="building" color="200,200,200" fill="true" layer="2" shape="6762.12,4040.83 6762.47,4036.68 6763.27,4036.75 6763.36,4035.77 6767.84,4036.14 6768.69,4025.99 6764.31,4025.63 6765.69,4009.30 6772.12,4009.84 6773.15,3997.68 6766.93,3997.16 6768.14,3982.81 6774.96,3983.38 6776.03,3970.40 6756.05,3968.67 6750.20,4034.77 6754.64,4040.23 6762.12,4040.83"/>
    <poly id="building_140" type="building" color="200,200,200" fill="true" layer="2" shape="6759.88,3667.35 6795.72,3678.52 6801.50,3660.19 6765.67,3649.03 6759.88,3667.35"/>
    <poly id="building_141" type="building" color="200,200,200" fill="true" layer="2" shape="6759.83,3668.27 6758.06,3673.89 6774.46,3678.99 6773.33,3682.56 6777.02,3683.70 6775.82,3687.51 6789.78,3691.85 6793.87,3678.85 6759.83,3668.27"/>
    <poly id="building_142" type="building" color="200,200,200" fill="true" layer="2" shape="7213.19,4512.19 7205.32,4520.15 7214.23,4528.83 7219.88,4523.11 7217.93,4521.21 7220.14,4518.97 7220.03,4518.87 7213.19,4512.19"/>
    <poly id="building_143" type="building" color="200,200,200" fill="true" layer="2" shape="7334.86,4331.76 7310.36,4377.10 7319.14,4381.79 7319.24,4381.85 7321.23,4378.16 7324.27,4379.79 7330.74,4367.82 7329.69,4367.26 7340.83,4346.63 7341.89,4347.19 7346.78,4338.12 7334.86,4331.76"/>
    <poly id="building_144" type="building" color="200,200,200" fill="true" layer="2" shape="7567.36,4516.01 7582.80,4517.00 7583.43,4507.19 7567.99,4506.19 7567.36,4516.01"/>
    <poly id="building_145" type="building" color="200,200,200" fill="true" layer="2" shape="7540.13,4067.98 7540.94,4083.81 7551.57,4083.26 7550.76,4067.45 7540.13,4067.98"/>
    <poly id="building_146" type="building" color="200,200,200" fill="true" layer="2" shape="7650.61,3309.93 7660.34,3312.77 7664.23,3299.60 7654.50,3296.77 7650.61,3309.93"/>
    <poly id="building_147" type="building" color="200,200,200" fill="true" layer="2" shape="7587.27,3378.24 7598.46,3381.97 7602.70,3369.39 7591.50,3365.67 7587.27,3378.24"/>
    <poly id="building_148" type="building" color="200,200,200" fill="true" layer="2" shape="7619.96,3363.01 7632.49,3365.56 7635.93,3348.89 7623.40,3346.34 7619.96,3363.01"/>