<?xml version="1.0" encoding="UTF-8"?>

<!-- generated on 2026-03-18T00:29:10.355420+05:30 by Eclipse SUMO netconvert 1.25.0
<netconvertConfiguration xmlns:xsi="http://www.w3.org/2001/XMLSchema-instance" xsi:noNamespaceSchemaLocation="http://sumo.dlr.de/xsd/netconvertConfiguration.xsd">

    <input>
        <osm-files value="map.osm"/>
    </input>

    <output>
        <output-file value="area.net.xml"/>
    </output>

    <projection>
        <proj.utm value="true"/>
    </projection>

    <processing>
        <geometry.remove value="true"/>
        <roundabouts.guess value="true"/>
    </processing>

    <ramp_guessing>
        <ramps.guess value="true"/>
    </ramp_guessing>

    <junctions>
        <no-turnarounds value="true"/>
    </junctions>

</netconvertConfiguration>
-->

<net version="1.20" junctionCornerDetail="5" limitTurnSpeed="5.50" xmlns:xsi="http://www.w3.org/2001/XMLSchema-instance" xsi:noNamespaceSchemaLocation="http://sumo.dlr.de/xsd/net_file.xsd">

    <location netOffset="-696923.58,-980000.26" convBoundary="0.00,0.00,14358.61,6896.08" origBoundary="76.790860,8.860726,76.921176,8.923188" projParameter="+proj=utm +zone=43 +ellps=WGS84 +datum=WGS84 +units=m +no_defs"/>

    <type id="highway.primary" priority="12" numLanes="2" speed="27.78" disallow="tram rail_urban rail rail_electric rail_fast ship container cable_car subway aircraft wheelchair scooter drone" oneway="0"/>
    <type id="highway.residential" priority="3" numLanes="1" speed="13.89" disallow="tram rail_urban rail rail_electric rail_fast ship container cable_car subway aircraft wheelchair scooter drone" oneway="0"/>
    <type id="highway.secondary" priority="11" numLanes="1" speed="27.78" disallow="tram rail_urban rail rail_electric rail_fast ship container cable_car subway aircraft wheelchair scooter drone" oneway="0"/>
    <type id="highway.service" priority="1" numLanes="1" speed="5.56" allow="pedestrian delivery bicycle" oneway="0"/>
    <type id="highway.tertiary" priority="10" numLanes="1" speed="22.22" disallow="tram rail_urban rail rail_electric rail_fast ship container cable_car subway aircraft wheelchair scooter drone" oneway="0"/>
    <type id="highway.unclassified" priority="4" numLanes="1" speed="13.89" disallow="tram rail_urban rail rail_electric rail_fast ship container cable_car subway aircraft wheelchair scooter drone" oneway="0"/>

    <edge id=":12136936983_0" function="internal">
        <lane id=":12136936983_0_0" index="0" disallow="tram rail_urban rail rail_electric rail_fast ship container cable_car subway aircraft wheelchair scooter drone" speed="27.78" length="18.34" shape="6946.73,4339.71 6942.47,4339.44 6937.57,4339.56 6932.69,4340.00 6928.48,4340.72"/>
    </edge>
    <edge id=":12136936983_1" function="internal">
        <lane id=":12136936983_1_0" index="0" disallow="tram rail_urban rail rail_electric rail_fast ship container cable_car subway aircraft wheelchair scooter drone" speed="15.32" length="3.33" shape="6946.73,4339.71 6943.55,4338.73"/>
    </edge>
    <edge id=":12136936983_6" function="internal">
        <lane id=":12136936983_6_0" index="0" disallow="tram rail_urban rail rail_electric rail_fast ship container cable_car subway aircraft wheelchair scooter drone" speed="15.32" length="14.04" shape="6943.55,4338.73 6942.86,4338.52 6938.92,4336.25 6935.27,4333.43 6932.24,4330.57"/>
    </edge>
    <edge id=":12136936983_2" function="internal">
        <lane id=":12136936983_2_0" index="0" disallow="tram rail_urban rail rail_electric rail_fast ship container cable_car subway aircraft wheelchair scooter drone" speed="14.26" length="15.01" shape="6934.55,4328.36 6937.23,4331.06 6940.13,4333.54 6943.30,4335.46 6946.83,4336.50"/>
    </edge>
    <edge id=":12136936983_3" function="internal">
        <lane id=":12136936983_3_0" index="0" disallow="tram rail_urban rail rail_electric rail_fast ship container cable_car subway aircraft wheelchair scooter drone" speed="7.76" length="18.77" shape="6934.55,4328.36 6937.41,4332.50 6937.35,4335.95 6934.38,4338.69 6928.48,4340.72"/>
    </edge>
    <edge id=":12136936983_4" function="internal">
        <lane id=":12136936983_4_0" index="0" disallow="tram rail_urban rail rail_electric rail_fast ship container cable_car subway aircraft wheelchair scooter drone" speed="5.81" length="9.86" shape="6929.47,4337.21 6932.45,4336.15 6933.91,4334.69 6933.84,4332.83 6932.24,4330.57"/>
    </edge>
    <edge id=":12136936983_5" function="internal">
        <lane id=":12136936983_5_0" index="0" disallow="tram rail_urban rail rail_electric rail_fast ship container cable_car subway aircraft wheelchair scooter drone" speed="27.78" length="17.44" shape="6929.47,4337.21 6933.54,4336.54 6938.12,4336.20 6942.71,4336.18 6946.83,4336.50"/>
    </edge>
    <edge id=":12136936986_0" function="internal">
        <lane id=":12136936986_0_0" index="0" disallow="tram rail_urban rail rail_electric rail_fast ship container cable_car subway aircraft wheelchair scooter drone" speed="9.42" length="9.58" shape="7267.48,3869.51 7265.35,3870.00 7263.38,3871.04 7261.55,3872.64 7259.86,3874.79"/>
    </edge>
    <edge id=":12136936986_1" function="internal">
        <lane id=":12136936986_1_0" index="0" disallow="tram rail_urban rail rail_electric rail_fast ship container cable_car subway aircraft wheelchair scooter drone" speed="11.56" length="12.03" shape="7267.48,3869.51 7264.20,3869.58 7261.55,3869.04 7259.10,3867.82 7256.43,3865.86"/>
    </edge>
    <edge id=":12136936986_2" function="internal">
        <lane id=":12136936986_2_0" index="0" disallow="tram rail_urban rail rail_electric rail_fast ship container cable_car subway aircraft wheelchair scooter drone" speed="5.58" length="9.28" shape="7261.07,3862.76 7260.54,3864.63 7261.39,3865.85 7263.59,3866.41 7267.16,3866.32"/>
    </edge>
    <edge id=":12136936986_3" function="internal">
        <lane id=":12136936986_3_0" index="0" disallow="tram rail_urban rail rail_electric rail_fast ship container cable_car subway aircraft wheelchair scooter drone" speed="13.89" length="3.61" shape="7261.07,3862.76 7260.25,3865.90 7260.30,3866.26"/>
    </edge>
    <edge id=":12136936986_6" function="internal">
        <lane id=":12136936986_6_0" index="0" disallow="tram rail_urban rail rail_electric rail_fast ship container cable_car subway aircraft wheelchair scooter drone" speed="13.89" length="8.72" shape="7260.30,3866.26 7260.60,3868.86 7260.88,3871.77 7259.86,3874.79"/>
    </edge>
    <edge id=":12136936986_4" function="internal">
        <lane id=":12136936986_4_0" index="0" disallow="tram rail_urban rail rail_electric rail_fast ship container cable_car subway aircraft wheelchair scooter drone" speed="6.38" length="8.05" shape="7257.20,3873.02 7258.21,3870.97 7258.42,3869.10 7257.82,3867.40 7256.43,3865.86"/>
    </edge>
    <edge id=":12136936986_5" function="internal">
        <lane id=":12136936986_5_0" index="0" disallow="tram rail_urban rail rail_electric rail_fast ship container cable_car subway aircraft wheelchair scooter drone" speed="10.66" length="12.41" shape="7257.20,3873.02 7259.34,3870.31 7261.72,3868.29 7264.33,3866.96 7267.16,3866.32"/>
    </edge>
    <edge id=":12136936989_0" function="internal">
        <lane id=":12136936989_0_0" index="0" disallow="tram rail_urban rail rail_electric rail_fast ship container cable_car subway aircraft wheelchair scooter drone" speed="13.89" length="11.07" shape="7208.21,3965.75 7206.86,3962.91 7205.61,3960.87 7204.00,3959.11 7201.59,3957.10"/>
    </edge>
    <edge id=":12136936989_1" function="internal">
        <lane id=":12136936989_1_0" index="0" disallow="tram rail_urban rail rail_electric rail_fast ship container cable_car subway aircraft wheelchair scooter drone" speed="8.04" length="3.46" shape="7208.21,3965.75 7207.24,3962.43"/>
    </edge>
    <edge id=":12136936989_6" function="internal">
        <lane id=":12136936989_6_0" index="0" disallow="tram rail_urban rail rail_electric rail_fast ship container cable_car subway aircraft wheelchair scooter drone" speed="8.04" length="9.39" shape="7207.24,3962.43 7207.48,3959.48 7208.93,3956.89 7211.59,3954.68"/>
    </edge>
    <edge id=":12136936989_2" function="internal">
        <lane id=":12136936989_2_0" index="0" disallow="tram rail_urban rail rail_electric rail_fast ship container cable_car subway aircraft wheelchair scooter drone" speed="6.53" length="8.18" shape="7213.28,3957.40 7211.58,3958.81 7210.66,3960.45 7210.51,3962.33 7211.13,3964.44"/>
    </edge>
    <edge id=":12136936989_3" function="internal">
        <lane id=":12136936989_3_0" index="0" disallow="tram rail_urban rail rail_electric rail_fast ship container cable_car subway aircraft wheelchair scooter drone" speed="8.74" length="12.53" shape="7213.28,3957.40 7210.19,3958.84 7207.21,3959.28 7204.34,3958.69 7201.59,3957.10"/>
    </edge>
    <edge id=":12136936989_4" function="internal">
        <lane id=":12136936989_4_0" index="0" disallow="tram rail_urban rail rail_electric rail_fast ship container cable_car subway aircraft wheelchair scooter drone" speed="7.34" length="8.60" shape="7203.56,3954.57 7205.42,3955.64 7207.38,3956.02 7209.44,3955.70 7211.59,3954.68"/>
    </edge>
    <edge id=":12136936989_5" function="internal">
        <lane id=":12136936989_5_0" index="0" disallow="tram rail_urban rail rail_electric rail_fast ship container cable_car subway aircraft wheelchair scooter drone" speed="13.89" length="12.59" shape="7203.56,3954.57 7206.12,3956.77 7208.05,3958.95 7209.63,3961.41 7211.13,3964.44"/>
    </edge>
    <edge id=":12136937006_0" function="internal">
        <lane id=":12136937006_0_0" index="0" disallow="tram rail_urban rail rail_electric rail_fast ship container cable_car subway aircraft wheelchair scooter drone" speed="22.22" length="14.44" shape="7377.67,4293.37 7363.94,4297.82"/>
    </edge>
    <edge id=":12136937006_1" function="internal">
        <lane id=":12136937006_1_0" index="0" disallow="tram rail_urban rail rail_electric rail_fast ship container cable_car subway aircraft wheelchair scooter drone" speed="8.49" length="3.87" shape="7377.67,4293.37 7373.83,4293.86"/>
    </edge>
    <edge id=":12136937006_6" function="internal">
        <lane id=":12136937006_6_0" index="0" disallow="tram rail_urban rail rail_electric rail_fast ship container cable_car subway aircraft wheelchair scooter drone" speed="8.49" length="10.57" shape="7373.83,4293.86 7370.60,4293.07 7367.99,4291.00 7365.98,4287.64"/>
    </edge>
    <edge id=":12136937006_2" function="internal">
        <lane id=":12136937006_2_0" index="0" disallow="tram rail_urban rail rail_electric rail_fast ship container cable_car subway aircraft wheelchair scooter drone" speed="7.01" length="9.55" shape="7368.93,4286.39 7370.27,4288.67 7371.99,4290.09 7374.09,4290.66 7376.57,4290.36"/>
    </edge>
    <edge id=":12136937006_3" function="internal">
        <lane id=":12136937006_3_0" index="0" disallow="tram rail_urban rail rail_electric rail_fast ship container cable_car subway aircraft wheelchair scooter drone" speed="7.90" length="14.41" shape="7368.93,4286.39 7369.95,4290.24 7369.45,4293.42 7367.45,4295.95 7363.94,4297.82"/>
    </edge>
    <edge id=":12136937006_4" function="internal">
        <lane id=":12136937006_4_0" index="0" disallow="tram rail_urban rail rail_electric rail_fast ship container cable_car subway aircraft wheelchair scooter drone" speed="6.39" length="9.04" shape="7362.85,4294.81 7365.06,4293.64 7366.31,4292.05 7366.62,4290.05 7365.98,4287.64"/>
    </edge>
    <edge id=":12136937006_5" function="internal">
        <lane id=":12136937006_5_0" index="0" disallow="tram rail_urban rail rail_electric rail_fast ship container cable_car subway aircraft wheelchair scooter drone" speed="22.22" length="14.42" shape="7362.85,4294.81 7376.57,4290.36"/>
    </edge>
    <edge id=":12136937007_0" function="internal">
        <lane id=":12136937007_0_0" index="0" disallow="tram rail_urban rail rail_electric rail_fast ship container cable_car subway aircraft wheelchair scooter drone" speed="13.89" length="14.43" shape="7328.95,4235.41 7319.09,4224.88"/>
    </edge>
    <edge id=":12136937007_1" function="internal">
        <lane id=":12136937007_1_0" index="0" disallow="tram rail_urban rail rail_electric rail_fast ship container cable_car subway aircraft wheelchair scooter drone" speed="7.85" length="4.15" shape="7328.95,4235.41 7326.64,4232.10 7326.62,4231.99"/>
    </edge>
    <edge id=":12136937007_6" function="internal">
        <lane id=":12136937007_6_0" index="0" disallow="tram rail_urban rail rail_electric rail_fast ship container cable_car subway aircraft wheelchair scooter drone" speed="7.85" length="10.40" shape="7326.62,4231.99 7326.03,4228.92 7327.13,4225.88 7329.93,4222.97"/>
    </edge>
    <edge id=":12136937007_2" function="internal">
        <lane id=":12136937007_2_0" index="0" disallow="tram rail_urban rail rail_electric rail_fast ship container cable_car subway aircraft wheelchair scooter drone" speed="6.32" length="9.04" shape="7331.89,4225.49 7330.15,4227.30 7329.47,4229.19 7329.85,4231.17 7331.29,4233.22"/>
    </edge>
    <edge id=":12136937007_3" function="internal">
        <lane id=":12136937007_3_0" index="0" disallow="tram rail_urban rail rail_electric rail_fast ship container cable_car subway aircraft wheelchair scooter drone" speed="8.31" length="14.34" shape="7331.89,4225.49 7328.44,4227.52 7325.16,4228.09 7322.04,4227.21 7319.09,4224.88"/>
    </edge>
    <edge id=":12136937007_4" function="internal">
        <lane id=":12136937007_4_0" index="0" disallow="tram rail_urban rail rail_electric rail_fast ship container cable_car subway aircraft wheelchair scooter drone" speed="6.88" length="9.51" shape="7321.43,4222.69 7323.36,4224.20 7325.42,4224.75 7327.61,4224.34 7329.93,4222.97"/>
    </edge>
    <edge id=":12136937007_5" function="internal">
        <lane id=":12136937007_5_0" index="0" disallow="tram rail_urban rail rail_electric rail_fast ship container cable_car subway aircraft wheelchair scooter drone" speed="13.89" length="14.43" shape="7321.43,4222.69 7331.29,4233.22"/>
    </edge>
    <edge id=":12136937010_0" function="internal">
        <lane id=":12136937010_0_0" index="0" disallow="tram rail_urban rail rail_electric rail_fast ship container cable_car subway aircraft wheelchair scooter drone" speed="13.43" length="15.58" shape="7320.34,4154.46 7317.05,4156.60 7313.81,4159.03 7311.14,4161.86 7309.52,4165.20"/>
    </edge>
    <edge id=":12136937010_1" function="internal">
        <lane id=":12136937010_1_0" index="0" disallow="tram rail_urban rail rail_electric rail_fast ship container cable_car subway aircraft wheelchair scooter drone" speed="7.45" length="19.82" shape="7320.34,4154.46 7314.62,4157.33 7311.11,4157.13 7309.81,4153.87 7310.71,4147.54"/>
    </edge>
    <edge id=":12136937010_2" function="internal">
        <lane id=":12136937010_2_0" index="0" disallow="tram rail_urban rail rail_electric rail_fast ship container cable_car subway aircraft wheelchair scooter drone" speed="5.46" length="9.86" shape="7313.81,4148.33 7313.36,4151.48 7314.01,4153.10 7315.76,4153.20 7318.60,4151.77"/>
    </edge>
    <edge id=":12136937010_3" function="internal">
        <lane id=":12136937010_3_0" index="0" disallow="tram rail_urban rail rail_electric rail_fast ship container cable_car subway aircraft wheelchair scooter drone" speed="13.89" length="17.41" shape="7313.81,4148.33 7309.52,4165.20"/>
    </edge>
    <edge id=":12136937010_4" function="internal">
        <lane id=":12136937010_4_0" index="0" disallow="tram rail_urban rail rail_electric rail_fast ship container cable_car subway aircraft wheelchair scooter drone" speed="13.89" length="17.41" shape="7306.42,4164.41 7310.71,4147.54"/>
    </edge>
    <edge id=":12136937010_5" function="internal">
        <lane id=":12136937010_5_0" index="0" disallow="tram rail_urban rail rail_electric rail_fast ship container cable_car subway aircraft wheelchair scooter drone" speed="13.89" length="3.34" shape="7306.42,4164.41 7307.92,4161.43"/>
    </edge>
    <edge id=":12136937010_6" function="internal">
        <lane id=":12136937010_6_0" index="0" disallow="tram rail_urban rail rail_electric rail_fast ship container cable_car subway aircraft wheelchair scooter drone" speed="13.89" length="14.51" shape="7307.92,4161.43 7308.25,4160.77 7311.39,4157.29 7315.10,4154.21 7318.60,4151.77"/>
    </edge>
    <edge id=":12136937024_0" function="internal">
        <lane id=":12136937024_0_0" index="0" disallow="tram rail_urban rail rail_electric rail_fast ship container cable_car subway aircraft wheelchair scooter drone" speed="9.48" length="12.32" shape="7550.23,3923.15 7548.36,3921.55 7545.81,3920.60 7542.59,3920.30 7538.70,3920.65"/>
    </edge>
    <edge id=":12136937024_1" function="internal">
        <lane id=":12136937024_1_0" index="0" disallow="tram rail_urban rail rail_electric rail_fast ship container cable_car subway aircraft wheelchair scooter drone" speed="27.78" length="15.36" shape="7550.23,3923.15 7540.64,3911.15"/>
    </edge>
    <edge id=":12136937024_2" function="internal">
        <lane id=":12136937024_2_0" index="0" disallow="tram rail_urban rail rail_electric rail_fast ship container cable_car subway aircraft wheelchair scooter drone" speed="27.78" length="15.36" shape="7543.14,3909.16 7552.73,3921.15"/>
    </edge>
    <edge id=":12136937024_3" function="internal">
        <lane id=":12136937024_3_0" index="0" disallow="tram rail_urban rail rail_electric rail_fast ship container cable_car subway aircraft wheelchair scooter drone" speed="7.41" length="4.91" shape="7543.14,3909.16 7545.68,3913.37"/>
    </edge>
    <edge id=":12136937024_6" function="internal">
        <lane id=":12136937024_6_0" index="0" disallow="tram rail_urban rail rail_electric rail_fast ship container cable_car subway aircraft wheelchair scooter drone" speed="7.41" length="11.84" shape="7545.68,3913.37 7545.73,3913.46 7545.85,3916.81 7543.51,3919.21 7538.70,3920.65"/>
    </edge>
    <edge id=":12136937024_4" function="internal">
        <lane id=":12136937024_4_0" index="0" disallow="tram rail_urban rail rail_electric rail_fast ship container cable_car subway aircraft wheelchair scooter drone" speed="5.68" length="9.23" shape="7538.19,3917.49 7540.85,3916.69 7542.14,3915.37 7542.07,3913.53 7540.64,3911.15"/>
    </edge>
    <edge id=":12136937024_5" function="internal">
        <lane id=":12136937024_5_0" index="0" disallow="tram rail_urban rail rail_electric rail_fast ship container cable_car subway aircraft wheelchair scooter drone" speed="10.64" length="15.69" shape="7538.19,3917.49 7542.96,3917.10 7546.98,3917.58 7550.23,3918.93 7552.73,3921.15"/>
    </edge>
    <edge id=":12136937026_0" function="internal">
        <lane id=":12136937026_0_0" index="0" disallow="tram rail_urban rail rail_electric rail_fast ship container cable_car subway aircraft wheelchair scooter drone" speed="7.77" length="9.73" shape="7330.27,3867.83 7328.03,3868.62 7326.30,3870.03 7325.06,3872.06 7324.32,3874.70"/>
    </edge>
    <edge id=":12136937026_1" function="internal">
        <lane id=":12136937026_1_0" index="0" disallow="tram rail_urban rail rail_electric rail_fast ship container cable_car subway aircraft wheelchair scooter drone" speed="13.89" length="13.73" shape="7330.27,3867.83 7326.76,3868.34 7323.45,3868.48 7320.14,3868.27 7316.62,3867.76"/>
    </edge>
    <edge id=":12136937026_2" function="internal">
        <lane id=":12136937026_2_0" index="0" disallow="tram rail_urban rail rail_electric rail_fast ship container cable_car subway aircraft wheelchair scooter drone" speed="13.89" length="12.57" shape="7317.18,3864.61 7320.52,3865.12 7323.43,3865.33 7326.34,3865.20 7329.66,3864.69"/>
    </edge>
    <edge id=":12136937026_3" function="internal">
        <lane id=":12136937026_3_0" index="0" disallow="tram rail_urban rail rail_electric rail_fast ship container cable_car subway aircraft wheelchair scooter drone" speed="8.00" length="3.85" shape="7317.18,3864.61 7320.84,3865.81"/>
    </edge>
    <edge id=":12136937026_6" function="internal">
        <lane id=":12136937026_6_0" index="0" disallow="tram rail_urban rail rail_electric rail_fast ship container cable_car subway aircraft wheelchair scooter drone" speed="8.00" length="10.22" shape="7320.84,3865.81 7323.24,3867.89 7324.41,3870.86 7324.32,3874.70"/>
    </edge>
    <edge id=":12136937026_4" function="internal">
        <lane id=":12136937026_4_0" index="0" disallow="tram rail_urban rail rail_electric rail_fast ship container cable_car subway aircraft wheelchair scooter drone" speed="6.51" length="8.95" shape="7321.16,3874.18 7321.22,3871.74 7320.48,3869.85 7318.95,3868.52 7316.62,3867.76"/>
    </edge>
    <edge id=":12136937026_5" function="internal">
        <lane id=":12136937026_5_0" index="0" disallow="tram rail_urban rail rail_electric rail_fast ship container cable_car subway aircraft wheelchair scooter drone" speed="9.11" length="13.65" shape="7321.16,3874.18 7322.20,3870.55 7323.96,3867.75 7326.45,3865.80 7329.66,3864.69"/>
    </edge>
    <edge id=":12136937028_0" function="internal">
        <lane id=":12136937028_0_0" index="0" disallow="tram rail_urban rail rail_electric rail_fast ship container cable_car subway aircraft wheelchair scooter drone" speed="7.36" length="9.87" shape="7366.42,3866.12 7365.12,3864.08 7363.30,3862.78 7360.99,3862.25 7358.16,3862.46"/>
    </edge>
    <edge id=":12136937028_1" function="internal">
        <lane id=":12136937028_1_0" index="0" disallow="tram rail_urban rail rail_electric rail_fast ship container cable_car subway aircraft wheelchair scooter drone" speed="13.89" length="14.29" shape="7366.42,3866.12 7365.02,3862.76 7363.78,3859.48 7362.64,3856.17 7361.54,3852.70"/>
    </edge>
    <edge id=":12136937028_2" function="internal">
        <lane id=":12136937028_2_0" index="0" disallow="tram rail_urban rail rail_electric rail_fast ship container cable_car subway aircraft wheelchair scooter drone" speed="13.89" length="13.94" shape="7364.60,3851.76 7365.68,3855.18 7366.78,3858.38 7367.98,3861.55 7369.36,3864.85"/>
    </edge>
    <edge id=":12136937028_3" function="internal">
        <lane id=":12136937028_3_0" index="0" disallow="tram rail_urban rail rail_electric rail_fast ship container cable_car subway aircraft wheelchair scooter drone" speed="7.82" length="4.07" shape="7364.60,3851.76 7365.22,3855.78"/>
    </edge>
    <edge id=":12136937028_6" function="internal">
        <lane id=":12136937028_6_0" index="0" disallow="tram rail_urban rail rail_electric rail_fast ship container cable_car subway aircraft wheelchair scooter drone" speed="7.82" length="10.55" shape="7365.22,3855.78 7364.35,3858.90 7362.00,3861.13 7358.16,3862.46"/>
    </edge>
    <edge id=":12136937028_4" function="internal">
        <lane id=":12136937028_4_0" index="0" disallow="tram rail_urban rail rail_electric rail_fast ship container cable_car subway aircraft wheelchair scooter drone" speed="6.29" length="9.04" shape="7357.55,3859.32 7359.93,3858.50 7361.39,3857.12 7361.92,3855.18 7361.54,3852.70"/>
    </edge>
    <edge id=":12136937028_5" function="internal">
        <lane id=":12136937028_5_0" index="0" disallow="tram rail_urban rail rail_electric rail_fast ship container cable_car subway aircraft wheelchair scooter drone" speed="8.73" length="14.25" shape="7357.55,3859.32 7361.55,3859.04 7364.85,3859.87 7367.45,3861.81 7369.36,3864.85"/>
    </edge>
    <edge id=":12136937041_0" function="internal">
        <lane id=":12136937041_0_0" index="0" disallow="tram rail_urban rail rail_electric rail_fast ship container cable_car subway aircraft wheelchair scooter drone" speed="13.89" length="14.93" shape="7073.24,3938.80 7069.55,3939.49 7066.00,3940.68 7062.71,3942.40 7059.78,3944.69"/>
    </edge>
    <edge id=":12136937041_1" function="internal">
        <lane id=":12136937041_1_0" index="0" disallow="tram rail_urban rail rail_electric rail_fast ship container cable_car subway aircraft wheelchair scooter drone" speed="11.07" length="3.35" shape="7073.24,3938.80 7069.99,3938.68 7069.89,3938.65"/>
    </edge>
    <edge id=":12136937041_6" function="internal">
        <lane id=":12136937041_6_0" index="0" disallow="tram rail_urban rail rail_electric rail_fast ship container cable_car subway aircraft wheelchair scooter drone" speed="11.07" length="11.82" shape="7069.89,3938.65 7066.74,3937.54 7063.48,3935.38 7060.21,3932.19"/>
    </edge>
    <edge id=":12136937041_2" function="internal">
        <lane id=":12136937041_2_0" index="0" disallow="tram rail_urban rail rail_electric rail_fast ship container cable_car subway aircraft wheelchair scooter drone" speed="9.92" length="12.08" shape="7062.61,3930.07 7065.29,3932.72 7067.88,3934.53 7070.40,3935.49 7072.85,3935.62"/>
    </edge>
    <edge id=":12136937041_3" function="internal">
        <lane id=":12136937041_3_0" index="0" disallow="tram rail_urban rail rail_electric rail_fast ship container cable_car subway aircraft wheelchair scooter drone" speed="8.77" length="16.73" shape="7062.61,3930.07 7064.57,3933.40 7064.75,3936.95 7063.16,3940.71 7059.78,3944.69"/>
    </edge>
    <edge id=":12136937041_4" function="internal">
        <lane id=":12136937041_4_0" index="0" disallow="tram rail_urban rail rail_electric rail_fast ship container cable_car subway aircraft wheelchair scooter drone" speed="6.88" length="9.91" shape="7059.11,3940.90 7060.97,3938.65 7061.77,3936.44 7061.52,3934.29 7060.21,3932.19"/>
    </edge>
    <edge id=":12136937041_5" function="internal">
        <lane id=":12136937041_5_0" index="0" disallow="tram rail_urban rail rail_electric rail_fast ship container cable_car subway aircraft wheelchair scooter drone" speed="13.89" length="14.96" shape="7059.11,3940.90 7062.08,3938.70 7065.47,3937.19 7069.11,3936.22 7072.85,3935.62"/>
    </edge>
    <edge id=":12167659280_0" function="internal">
        <lane id=":12167659280_0_0" index="0" disallow="tram rail_urban rail rail_electric rail_fast ship container cable_car subway aircraft wheelchair scooter drone" speed="11.11" length="14.40" shape="8632.79,3578.06 8629.44,3576.63 8626.07,3575.53 8622.67,3574.49 8619.22,3573.28"/>
    </edge>
    <edge id=":12167659280_1" function="internal">
        <lane id=":12167659280_1_0" index="0" disallow="tram rail_urban rail rail_electric rail_fast ship container cable_car subway aircraft wheelchair scooter drone" speed="8.30" length="3.13" shape="8632.79,3578.06 8630.18,3576.33"/>
    </edge>
    <edge id=":12167659280_6" function="internal">
        <lane id=":12167659280_6_0" index="0" disallow="tram rail_urban rail rail_electric rail_fast ship container cable_car subway aircraft wheelchair scooter drone" speed="8.30" length="11.35" shape="8630.18,3576.33 8629.34,3575.77 8627.32,3573.04 8626.73,3569.86 8627.58,3566.25"/>
    </edge>
    <edge id=":12167659280_2" function="internal">
        <lane id=":12167659280_2_0" index="0" disallow="tram rail_urban rail rail_electric rail_fast ship container cable_car subway aircraft wheelchair scooter drone" speed="6.71" length="9.12" shape="8630.54,3567.45 8629.99,3569.77 8630.33,3571.79 8631.57,3573.51 8633.71,3574.94"/>
    </edge>
    <edge id=":12167659280_3" function="internal">
        <lane id=":12167659280_3_0" index="0" disallow="tram rail_urban rail rail_electric rail_fast ship container cable_car subway aircraft wheelchair scooter drone" speed="8.10" length="14.47" shape="8630.54,3567.45 8628.48,3571.14 8625.91,3573.35 8622.82,3574.06 8619.22,3573.28"/>
    </edge>
    <edge id=":12167659280_4" function="internal">
        <lane id=":12167659280_4_0" index="0" disallow="tram rail_urban rail rail_electric rail_fast ship container cable_car subway aircraft wheelchair scooter drone" speed="6.71" length="9.58" shape="8620.12,3570.20 8622.48,3570.70 8624.51,3570.20 8626.21,3568.72 8627.58,3566.25"/>
    </edge>
    <edge id=":12167659280_5" function="internal">
        <lane id=":12167659280_5_0" index="0" disallow="tram rail_urban rail rail_electric rail_fast ship container cable_car subway aircraft wheelchair scooter drone" speed="11.11" length="14.39" shape="8620.12,3570.20 8633.71,3574.94"/>
    </edge>
    <edge id=":12167659281_0" function="internal">
        <lane id=":12167659281_0_0" index="0" disallow="tram rail_urban rail rail_electric rail_fast ship container cable_car subway aircraft wheelchair scooter drone" speed="6.96" length="9.61" shape="8221.98,3832.07 8219.26,3832.42 8217.23,3833.45 8215.91,3835.14 8215.28,3837.51"/>
    </edge>
    <edge id=":12167659281_1" function="internal">
        <lane id=":12167659281_1_0" index="0" disallow="tram rail_urban rail rail_electric rail_fast ship container cable_car subway aircraft wheelchair scooter drone" speed="7.82" length="14.62" shape="8221.98,3832.07 8217.95,3831.51 8215.21,3829.78 8213.76,3826.88 8213.60,3822.81"/>
    </edge>
    <edge id=":12167659281_2" function="internal">
        <lane id=":12167659281_2_0" index="0" disallow="tram rail_urban rail rail_electric rail_fast ship container cable_car subway aircraft wheelchair scooter drone" speed="6.28" length="9.04" shape="8216.78,3823.15 8216.88,3825.66 8217.77,3827.46 8219.47,3828.53 8221.96,3828.87"/>
    </edge>
    <edge id=":12167659281_3" function="internal">
        <lane id=":12167659281_3_0" index="0" disallow="tram rail_urban rail rail_electric rail_fast ship container cable_car subway aircraft wheelchair scooter drone" speed="13.89" length="14.44" shape="8216.78,3823.15 8215.28,3837.51"/>
    </edge>
    <edge id=":12167659281_4" function="internal">
        <lane id=":12167659281_4_0" index="0" disallow="tram rail_urban rail rail_electric rail_fast ship container cable_car subway aircraft wheelchair scooter drone" speed="13.89" length="14.44" shape="8212.09,3837.17 8213.60,3822.81"/>
    </edge>
    <edge id=":12167659281_5" function="internal">