<additional>
    <poly id="building_0" type="building" color="200,200,200" fill="true" layer="2" shape="8381.64,2999.59 8461.52,2913.44 8498.97,2949.64 8417.03,3029.53 8381.64,2999.59"/>
    <poly id="building_1" type="building" color="200,200,200" fill="true" layer="2" shape="7700.69,4030.78 7707.75,4035.22 7721.73,4012.71 7702.30,4003.82 7698.43,4010.25 7708.43,4016.46 7700.69,4030.78"/>
    <poly id="building_2" type="building" color="200,200,200" fill="true" layer="2" shape="7650.53,4090.33 7655.82,4093.58 7662.36,4083.94 7656.19,4080.69 7650.53,4090.33"/>
    <poly id="building_3" type="building" color="200,200,200" fill="true" layer="2" shape="7657.87,4095.05 7662.87,4098.60 7669.72,4086.90 7664.13,4085.42 7657.87,4095.05"/>
    <poly id="building_4" type="building" color="200,200,200" fill="true" layer="2" shape="7613.73,4072.27 7620.81,4072.89 7622.32,4066.15 7630.58,4066.19 7630.61,4060.63 7616.16,4059.38 7613.73,4072.27"/>
    <poly id="building_5" type="building" color="200,200,200" fill="true" layer="2" shape="7606.07,4129.68 7616.76,4116.25 7586.72,4104.96 7583.44,4111.98 7606.07,4129.68"/>
    <poly id="building_6" type="building" color="200,200,200" fill="true" layer="2" shape="7562.57,4096.05 7583.77,4104.36 7587.38,4091.18 7565.86,4086.68 7562.57,4096.05"/>
    <poly id="building_7" type="building" color="200,200,200" fill="true" layer="2" shape="7573.36,4067.09 7575.11,4055.39 7595.27,4058.37 7593.51,4070.07 7573.36,4067.09"/>
    <poly id="building_8" type="building" color="200,200,200" fill="true" layer="2" shape="7589.84,4013.22 7601.71,4000.38 7592.90,3990.67 7578.97,4002.91 7589.84,4013.22"/>
    <poly id="building_9" type="building" color="200,200,200" fill="true" layer="2" shape="7629.65,4017.82 7621.15,4005.47 7634.78,3994.40 7645.64,4006.18 7629.65,4017.82"/>
    <poly id="building_10" type="building" color="200,200,200" fill="true" layer="2" shape="7660.60,4022.96 7644.14,4011.15 7650.67,4002.69 7662.93,4014.04 7665.94,4016.83 7660.60,4022.96"/>
    <poly id="building_11" type="building" color="200,200,200" fill="true" layer="2" shape="7662.93,4014.04 7652.74,4001.81 7657.49,3995.69 7667.18,4004.82 7662.93,4014.04"/>
    <poly id="building_12" type="building" color="200,200,200" fill="true" layer="2" shape="7591.88,4016.46 7604.55,4021.21 7612.55,4014.22 7604.04,4004.80 7591.88,4016.46"/>
    <poly id="building_13" type="building" color="200,200,200" fill="true" layer="2" shape="7767.10,4132.71 7774.23,4135.75 7781.15,4124.06 7773.75,4120.47 7767.10,4132.71"/>
    <poly id="building_14" type="building" color="200,200,200" fill="true" layer="2" shape="7740.54,4153.34 7749.95,4160.06 7758.34,4144.85 7748.30,4138.92 7740.54,4153.34"/>
    <poly id="building_15" type="building" color="200,200,200" fill="true" layer="2" shape="7717.63,4129.87 7730.04,4142.01 7739.05,4130.61 7723.76,4119.73 7717.63,4129.87"/>
    <poly id="building_16" type="building" color="200,200,200" fill="true" layer="2" shape="7757.84,4170.07 7765.95,4152.52 7774.87,4157.38 7766.94,4175.49 7757.84,4170.07"/>
    <poly id="building_17" type="building" color="200,200,200" fill="true" layer="2" shape="7776.08,4139.42 7783.68,4145.75 7793.24,4135.25 7785.45,4129.10 7776.08,4139.42"/>
    <poly id="building_18" type="building" color="200,200,200" fill="true" layer="2" shape="7769.99,4223.07 7779.13,4224.88 7783.80,4201.78 7774.66,4199.96 7769.99,4223.07"/>
    <poly id="building_19" type="building" color="200,200,200" fill="true" layer="2" shape="7743.80,4220.75 7762.05,4226.01 7764.10,4219.02 7745.84,4213.76 7743.80,4220.75"/>
    <poly id="building_20" type="building" color="200,200,200" fill="true" layer="2" shape="7744.52,4196.33 7764.78,4201.49 7767.55,4190.79 7747.29,4185.61 7744.52,4196.33"/>
    <poly id="building_21" type="building" color="200,200,200" fill="true" layer="2" shape="7713.96,4260.58 7714.21,4248.00 7722.22,4247.85 7721.60,4260.43 7713.96,4260.58"/>
    <poly id="building_22" type="building" color="200,200,200" fill="true" layer="2" shape="7707.64,4256.85 7711.55,4257.05 7712.37,4240.76 7707.53,4241.29 7707.64,4256.85"/>
    <poly id="building_23" type="building" color="200,200,200" fill="true" layer="2" shape="7541.20,4179.35 7532.30,4171.34 7538.47,4165.63 7546.45,4174.38 7541.20,4179.35"/>
    <poly id="building_24" type="building" color="200,200,200" fill="true" layer="2" shape="7536.81,4184.26 7539.88,4181.69 7531.81,4172.19 7525.75,4177.26 7533.82,4186.76 7535.03,4185.76 7536.81,4184.26"/>
    <poly id="building_25" type="building" color="200,200,200" fill="true" layer="2" shape="7452.28,4254.82 7444.70,4243.30 7447.69,4241.47 7446.77,4239.62 7449.20,4237.41 7458.64,4249.68 7452.28,4254.82"/>
    <poly id="building_26" type="building" color="200,200,200" fill="true" layer="2" shape="7437.12,4230.86 7442.48,4238.11 7449.79,4232.22 7442.73,4225.70 7437.12,4230.86"/>
    <poly id="building_27" type="building" color="200,200,200" fill="true" layer="2" shape="7467.11,4196.93 7481.76,4212.38 7486.45,4205.00 7473.10,4192.34 7467.11,4196.93"/>
    <poly id="building_28" type="building" color="200,200,200" fill="true" layer="2" shape="7464.44,4172.49 7474.48,4177.71 7481.99,4167.39 7472.51,4160.67 7464.44,4172.49"/>
    <poly id="building_29" type="building" color="200,200,200" fill="true" layer="2" shape="7525.66,4193.90 7519.00,4184.42 7524.80,4177.97 7532.77,4187.83 7525.66,4193.90"/>
    <poly id="building_30" type="building" color="200,200,200" fill="true" layer="2" shape="7505.07,4211.57 7495.99,4199.30 7503.28,4194.16 7512.55,4206.42 7505.07,4211.57"/>
    <poly id="building_31" type="building" color="200,200,200" fill="true" layer="2" shape="7406.54,4308.11 7404.73,4295.70 7413.32,4294.45 7415.67,4306.86 7411.79,4307.39 7406.54,4308.11"/>
    <poly id="building_32" type="building" color="200,200,200" fill="true" layer="2" shape="7319.21,4303.26 7291.79,4284.86 7299.36,4273.71 7326.79,4292.11 7319.21,4303.26"/>
    <poly id="building_33" type="building" color="200,200,200" fill="true" layer="2" shape="7354.11,4316.36 7350.98,4309.13 7359.77,4304.54 7363.28,4310.86 7354.11,4316.36"/>
    <poly id="building_34" type="building" color="200,200,200" fill="true" layer="2" shape="7329.85,4336.13 7338.47,4340.55 7345.36,4327.30 7336.73,4322.88 7329.85,4336.13"/>
    <poly id="building_35" type="building" color="200,200,200" fill="true" layer="2" shape="7342.66,4340.37 7350.81,4345.03 7355.52,4336.89 7347.37,4332.23 7342.66,4340.37"/>
    <poly id="building_36" type="building" color="200,200,200" fill="true" layer="2" shape="7321.96,4351.75 7332.33,4356.12 7338.45,4341.74 7328.09,4337.37 7321.96,4351.75"/>
    <poly id="building_37" type="building" color="200,200,200" fill="true" layer="2" shape="7322.88,4376.88 7339.54,4381.71 7342.74,4370.83 7326.08,4366.00 7322.88,4376.88"/>
    <poly id="building_38" type="building" color="200,200,200" fill="true" layer="2" shape="8039.92,4560.80 8130.45,4569.76 8130.81,4557.45 8042.33,4549.97 8039.92,4560.80"/>
    <poly id="building_39" type="building" color="200,200,200" fill="true" layer="2" shape="8094.53,4544.88 8095.03,4534.66 8129.43,4540.61 8128.72,4549.72 8094.53,4544.88"/>
    <poly id="building_40" type="building" color="200,200,200" fill="true" layer="2" shape="8108.41,4452.98 8111.09,4455.44 8117.12,4455.47 8100.39,4491.81 8091.46,4488.44 8108.41,4452.98"/>
    <poly id="building_41" type="building" color="200,200,200" fill="true" layer="2" shape="8084.45,4504.62 8090.25,4507.31 8091.15,4505.54 8093.38,4507.33 8094.05,4505.90 8098.87,4495.64 8100.38,4492.31 8091.46,4488.88 8084.45,4504.62"/>
    <poly id="building_42" type="building" color="200,200,200" fill="true" layer="2" shape="8094.23,4505.88 8096.88,4500.23 8098.96,4495.70 8133.84,4510.20 8129.54,4520.40 8094.23,4505.88"/>
    <poly id="building_43" type="building" color="200,200,200" fill="true" layer="2" shape="7930.54,4609.14 7933.20,4614.04 7937.87,4616.73 7967.78,4583.33 7963.10,4579.53 7960.21,4576.19 7930.54,4609.14"/>
    <poly id="building_44" type="building" color="200,200,200" fill="true" layer="2" shape="7968.68,4581.79 7998.13,4550.17 7989.22,4543.68 7960.21,4576.19 7968.68,4581.79"/>
    <poly id="building_45" type="building" color="200,200,200" fill="true" layer="2" shape="7991.47,4541.03 7999.48,4548.39 8028.49,4515.44 8020.92,4509.19 7991.47,4541.03"/>
    <poly id="building_46" type="building" color="200,200,200" fill="true" layer="2" shape="7582.48,4237.27 7595.98,4234.60 7599.12,4250.34 7585.63,4253.00 7582.48,4237.27"/>
    <poly id="building_47" type="building" color="200,200,200" fill="true" layer="2" shape="7518.05,4394.97 7523.35,4408.78 7528.27,4407.02 7532.03,4414.82 7527.11,4416.34 7532.40,4430.59 7524.34,4433.44 7521.45,4429.42 7515.81,4413.85 7509.77,4397.15 7518.05,4394.97"/>
    <poly id="building_48" type="building" color="200,200,200" fill="true" layer="2" shape="7459.95,4431.78 7461.05,4435.57 7462.84,4434.68 7465.26,4442.91 7513.42,4425.39 7515.40,4432.28 7520.10,4430.75 7515.81,4413.85 7459.95,4431.78"/>
    <poly id="building_49" type="building" color="200,200,200" fill="true" layer="2" shape="7542.08,4395.75 7546.27,4405.87 7554.24,4403.22 7553.24,4401.20 7558.84,4399.37 7554.83,4390.09 7542.08,4395.75"/>
    <poly id="building_50" type="building" color="200,200,200" fill="true" layer="2" shape="9117.07,3877.67 9141.11,3876.90 9141.37,3870.35 9145.27,3870.81 9145.53,3865.70 9141.95,3865.46 9142.21,3858.47 9118.06,3858.01 9116.15,3860.44 9117.07,3877.67"/>
    <poly id="building_51" type="building" color="200,200,200" fill="true" layer="2" shape="7190.89,4577.69 7198.66,4578.58 7200.02,4576.92 7209.78,4578.84 7211.73,4569.07 7212.93,4559.35 7210.42,4559.04 7211.21,4552.63 7205.36,4551.91 7198.73,4551.14 7197.16,4564.35 7192.34,4565.11 7190.81,4573.43 7193.65,4573.94 7190.89,4577.69"/>
    <poly id="building_52" type="building" color="200,200,200" fill="true" layer="2" shape="7500.94,4287.17 7499.95,4293.73 7501.13,4297.57 7508.46,4298.61 7509.79,4290.72 7507.84,4285.29 7500.94,4287.17"/>
    <poly id="building_53" type="building" color="200,200,200" fill="true" layer="2" shape="7550.81,4385.92 7557.72,4383.51 7555.82,4377.03 7553.86,4372.62 7548.75,4373.50 7548.63,4377.24 7550.44,4382.18 7550.81,4385.92"/>
    <poly id="building_54" type="building" color="200,200,200" fill="true" layer="2" shape="7538.25,4312.20 7541.86,4322.45 7547.82,4320.39 7560.25,4312.25 7554.28,4303.24 7547.05,4307.97 7542.62,4308.24 7538.25,4312.20"/>
    <poly id="building_55" type="building" color="200,200,200" fill="true" layer="2" shape="7577.16,4343.70 7578.85,4350.69 7582.38,4353.98 7589.33,4350.09 7590.10,4346.27 7587.85,4341.13 7580.96,4342.85 7577.16,4343.70"/>
    <poly id="building_56" type="building" color="200,200,200" fill="true" layer="2" shape="7542.42,4354.51 7545.53,4359.30 7548.89,4357.21 7552.46,4361.04 7557.29,4357.65 7562.36,4354.86 7561.82,4350.28 7559.08,4342.32 7551.16,4346.00 7546.65,4349.00 7543.20,4351.09 7542.42,4354.51"/>
    <poly id="building_57" type="building" color="200,200,200" fill="true" layer="2" shape="8279.64,2894.50 8312.65,2893.49 8311.03,2865.38 8301.71,2841.92 8275.22,2837.68 8272.73,2862.85 8279.64,2894.50"/>
    <poly id="building_58" type="building" color="200,200,200" fill="true" layer="2" shape="8312.63,2775.72 8346.24,2782.15 8355.50,2754.35 8364.49,2728.45 8321.75,2724.28 8312.63,2775.72"/>
    <poly id="building_59" type="building" color="200,200,200" fill="true" layer="2" shape="8467.55,2605.19 8525.77,2609.66 8525.92,2580.38 8505.70,2553.78 8469.85,2567.54 8467.55,2605.19"/>
    <poly id="building_60" type="building" color="200,200,200" fill="true" layer="2" shape="7643.61,4099.95 7667.60,4111.79 7659.07,4122.30 7640.61,4112.10 7643.61,4099.95"/>
    <poly id="building_61" type="building" color="200,200,200" fill="true" layer="2" shape="7374.65,3632.97 7383.36,3633.84 7390.01,3635.23 7395.44,3637.04 7399.43,3635.14 7398.70,3628.53 7401.88,3624.45 7393.32,3621.54 7384.46,3618.49 7377.75,3616.90 7376.62,3623.77 7374.65,3632.97"/>
    <poly id="building_62" type="building" color="200,200,200" fill="true" layer="2" shape="7301.48,3693.46 7331.99,3693.09 7342.69,3693.86 7350.16,3694.08 7349.65,3709.58 7349.03,3721.22 7348.86,3729.78 7348.38,3734.07 7348.06,3738.08 7347.78,3743.69 7347.24,3748.36 7346.93,3756.16 7346.88,3772.55 7322.55,3775.38 7311.04,3776.59 7297.01,3776.33 7297.41,3768.11 7297.82,3756.26 7298.08,3748.30 7298.66,3739.28 7299.20,3730.77 7299.83,3721.32 7301.48,3693.46"/>
    <poly id="building_63" type="building" color="200,200,200" fill="true" layer="2" shape="7291.27,3623.52 7305.85,3631.84 7313.88,3635.03 7317.41,3627.81 7307.62,3621.90 7297.56,3617.07 7291.51,3615.61 7291.27,3623.52"/>
    <poly id="building_64" type="building" color="200,200,200" fill="true" layer="2" shape="8025.36,4250.04 8030.03,4245.25 8036.21,4248.24 8041.66,4253.19 8043.85,4258.69 8041.18,4260.85 8040.22,4263.44 8043.11,4265.19 8040.99,4267.07 8044.58,4270.83 8044.09,4274.22 8040.06,4278.26 8037.03,4280.22 8032.65,4277.20 8027.15,4273.51 8020.71,4268.11 8014.97,4264.38 8012.69,4261.61 8017.15,4257.13 8023.72,4252.00 8025.36,4250.04"/>
    <poly id="building_65" type="building" color="200,200,200" fill="true" layer="2" shape="7612.35,4042.56 7610.72,4050.36 7629.58,4054.27 7631.21,4046.47 7612.35,4042.56"/>
    <poly id="building_66" type="building" color="200,200,200" fill="true" layer="2" shape="7686.60,4122.22 7696.91,4128.73 7709.99,4108.28 7699.68,4101.77 7686.60,4122.22"/>
    <poly id="building_67" type="building" color="200,200,200" fill="true" layer="2" shape="7578.03,4119.33 7590.98,4132.76 7595.36,4137.30 7603.66,4129.43 7582.49,4113.49 7578.03,4119.33"/>
    <poly id="building_68" type="building" color="200,200,200" fill="true" layer="2" shape="8060.76,3557.20 8071.92,3568.39 8080.97,3559.50 8069.81,3548.31 8060.76,3557.20"/>
    <poly id="building_69" type="building" color="200,200,200" fill="true" layer="2" shape="7761.59,4124.88 7766.58,4116.34 7772.47,4119.78 7767.35,4129.83 7761.59,4124.88"/>
    <poly id="building_70" type="building" color="200,200,200" fill="true" layer="2" shape="7393.20,3454.55 7395.05,3444.47 7408.27,3446.87 7406.42,3456.95 7393.20,3454.55"/>
    <poly id="building_71" type="building" color="200,200,200" fill="true" layer="2" shape="6851.37,3421.36 6855.14,3408.81 6881.63,3415.07 6876.94,3429.14 6851.37,3421.36"/>
    <poly id="building_72" type="building" color="200,200,200" fill="true" layer="2" shape="8155.89,3506.62 8142.89,3502.09 8138.21,3497.19 8138.66,3491.88 8144.02,3489.58 8147.02,3489.38 8150.64,3491.31 8160.49,3484.57 8161.60,3477.30 8174.11,3479.19 8172.21,3491.63 8164.94,3492.23 8161.18,3494.35 8162.14,3496.04 8159.96,3506.22 8155.89,3506.62"/>
    <poly id="building_73" type="building" color="200,200,200" fill="true" layer="2" shape="7840.65,3823.33 7830.19,3819.55 7838.67,3808.44 7847.15,3814.81 7840.65,3823.33"/>
    <poly id="building_74" type="building" color="200,200,200" fill="true" layer="2" shape="7773.68,3928.03 7778.02,3918.72 7790.59,3923.52 7785.60,3932.52 7773.68,3928.03"/>
    <poly id="building_75" type="building" color="200,200,200" fill="true" layer="2" shape="7747.07,3957.35 7753.49,3949.92 7756.19,3952.20 7761.39,3946.15 7780.38,3962.26 7768.41,3973.33 7747.07,3957.35"/>
    <poly id="building_76" type="building" color="200,200,200" fill="true" layer="2" shape="8008.46,4610.85 8008.66,4592.98 8015.31,4593.05 8015.23,4600.06 8022.33,4600.14 8022.27,4605.46 8015.97,4605.39 8015.91,4610.93 8008.46,4610.85"/>
    <poly id="building_77" type="building" color="200,200,200" fill="true" layer="2" shape="8371.63,4424.94 8354.42,4419.14 8357.59,4410.34 8375.30,4416.76 8373.39,4421.22 8371.63,4424.94"/>
    <poly id="building_78" type="building" color="200,200,200" fill="true" layer="2" shape="7124.97,4307.83 7097.97,4266.20 7123.92,4249.60 7127.99,4255.87 7150.60,4241.42 7161.39,4258.09 7132.50,4276.56 7125.99,4266.50 7119.64,4270.56 7127.35,4282.46 7134.56,4277.84 7145.49,4294.71 7124.97,4307.83"/>
    <poly id="building_79" type="building" color="200,200,200" fill="true" layer="2" shape="8188.59,4514.27 8204.68,4515.50 8205.75,4494.52 8189.86,4493.67 8188.59,4514.27"/>
    <poly id="building_80" type="building" color="200,200,200" fill="true" layer="2" shape="6847.41,4637.39 6850.17,4622.68 6864.69,4625.37 6861.95,4640.08 6847.41,4637.39"/>
    <poly id="building_81" type="building" color="200,200,200" fill="true" layer="2" shape="6888.40,4647.20 6889.22,4633.64 6904.77,4634.56 6903.95,4648.12 6888.40,4647.20"/>
    <poly id="building_82" type="building" color="200,200,200" fill="true" layer="2" shape="6823.34,4554.10 6823.90,4543.33 6843.61,4544.34 6842.78,4560.53 6823.34,4554.10"/>
    <poly id="building_83" type="building" color="200,200,200" fill="true" layer="2" shape="6806.18,4463.95 6800.01,4453.44 6812.37,4446.27 6818.55,4456.79 6806.18,4463.95"/>
    <poly id="building_84" type="building" color="200,200,200" fill="true" layer="2" shape="7134.83,4343.61 7140.62,4343.64 7142.15,4319.02 7135.09,4318.86 7134.83,4343.61"/>
    <poly id="building_85" type="building" color="200,200,200" fill="true" layer="2" shape="7990.19,3314.95 7943.47,3310.38 7949.65,3256.56 7972.75,3258.34 7997.40,3261.15 7990.19,3314.95"/>
    <poly id="building_86" type="building" color="200,200,200" fill="true" layer="2" shape="8073.45,3571.52 8096.36,3551.87 8114.82,3572.39 8090.79,3592.05 8073.45,3571.52"/>
    <poly id="building_87" type="building" color="200,200,200" fill="true" layer="2" shape="6855.54,3400.10 6860.63,3386.57 6874.14,3391.20 6869.67,3402.87 6869.04,3404.50 6855.54,3400.10"/>
    <poly id="building_88" type="building" color="200,200,200" fill="true" layer="2" shape="8074.29,3457.21 8082.48,3466.67 8090.11,3471.35 8097.70,3476.61 8107.61,3483.77 8102.62,3488.43 8096.91,3493.60 8089.98,3501.23 8081.00,3506.32 8073.24,3500.60 8068.29,3497.79 8057.63,3492.70 8048.67,3484.43 8038.48,3474.81 8037.33,3471.76 8044.24,3462.78 8050.73,3453.97 8058.04,3446.14 8066.01,3452.05 8074.29,3457.21"/>
    <poly id="building_89" type="building" color="200,200,200" fill="true" layer="2" shape="7698.30,3957.16 7701.25,3953.59 7707.21,3946.37 7688.98,3933.38 7694.96,3918.75 7663.77,3899.84 7638.76,3888.57 7620.50,3881.73 7605.27,3916.83 7617.34,3922.17 7635.88,3931.64 7653.54,3939.06 7677.09,3950.61 7693.89,3955.38 7698.30,3957.16"/>
    <poly id="building_90" type="building" color="200,200,200" fill="true" layer="2" shape="7593.67,3936.71 7604.79,3954.94 7609.16,3963.46 7617.09,3970.83 7625.05,3973.80 7630.96,3972.37 7639.84,3966.25 7645.48,3958.96 7639.34,3948.37 7633.77,3939.84 7626.46,3928.37 7614.68,3922.74 7603.14,3930.02 7593.67,3936.71"/>
    <poly id="building_91" type="building" color="200,200,200" fill="true" layer="2" shape="6848.40,4008.22 6854.94,4008.23 6854.95,3999.48 6848.41,3999.47 6848.40,4008.22"/>
    <poly id="building_92" type="building" color="200,200,200" fill="true" layer="2" shape="8882.98,3578.13 8894.51,3568.41 8899.88,3576.26 8888.20,3584.83 8882.98,3578.13"/>
    <poly id="building_93" type="building" color="200,200,200" fill="true" layer="2" shape="8071.55,3548.81 8081.81,3538.85 8091.70,3549.31 8081.11,3558.80 8071.55,3548.81"/>
    <poly id="building_94" type="building" color="200,200,200" fill="true" layer="2" shape="8028.03,3601.80 8044.64,3608.33 8044.26,3615.30 8047.60,3616.81 8042.06,3622.42 8034.74,3619.54 8037.36,3612.95 8025.44,3608.26 8028.03,3601.80"/>
    <poly id="building_95" type="building" color="200,200,200" fill="true" layer="2" shape="7823.18,3862.62 7815.52,3880.89 7798.33,3873.78 7796.04,3869.65 7802.56,3854.09 7823.18,3862.62"/>
    <poly id="building_96" type="building" color="200,200,200" fill="true" layer="2" shape="8570.90,4214.04 8573.65,4217.98 8577.72,4215.17 8578.85,4216.80 8591.10,4208.38 8584.98,4199.60 8571.14,4209.13 8573.38,4212.34 8570.90,4214.04"/>
</additional>
