<additional>
    <poly id="building_0" type="building" color="200,200,200" fill="true" layer="2" shape="4723.72,1867.58 4737.42,1873.63 4747.00,1852.26 4731.35,1845.33 4721.76,1866.71 4723.72,1867.58"/>
    <poly id="building_1" type="building" color="200,200,200" fill="true" layer="2" shape="4244.68,1715.22 4249.90,1733.67 4274.23,1726.88 4270.06,1712.13 4269.02,1708.44 4244.68,1715.22"/>
    <poly id="building_2" type="building" color="200,200,200" fill="true" layer="2" shape="4239.45,1694.14 4237.42,1680.38 4256.18,1677.67 4258.20,1691.43 4239.45,1694.14"/>
    <poly id="building_3" type="building" color="200,200,200" fill="true" layer="2" shape="4164.01,1689.52 4159.43,1676.82 4170.47,1674.56 4175.05,1686.11 4164.01,1689.52"/>
    <poly id="building_4" type="building" color="200,200,200" fill="true" layer="2" shape="4155.57,1723.24 4164.20,1722.25 4163.12,1713.04 4150.87,1714.44 4151.30,1718.17 4154.94,1717.76 4155.57,1723.24"/>
    <poly id="building_5" type="building" color="200,200,200" fill="true" layer="2" shape="4216.42,1735.72 4213.81,1723.14 4232.40,1719.35 4235.00,1731.93 4216.42,1735.72"/>
    <poly id="building_6" type="building" color="200,200,200" fill="true" layer="2" shape="4581.87,2147.29 4597.24,2140.06 4600.51,2146.92 4595.60,2115.86 4579.84,2123.28 4586.46,2137.17 4578.76,2140.78 4581.87,2147.29"/>
    <poly id="building_7" type="building" color="200,200,200" fill="true" layer="2" shape="4673.30,2130.62 4663.95,2101.02 4736.75,2081.40 4744.33,2110.60 4717.99,2118.11 4673.30,2130.62"/>
    <poly id="building_8" type="building" color="200,200,200" fill="true" layer="2" shape="4597.89,2066.47 4636.08,2059.85 4633.26,2043.11 4596.86,2048.98 4597.89,2066.47"/>
    <poly id="building_9" type="building" color="200,200,200" fill="true" layer="2" shape="4658.56,1862.32 4658.99,1854.56 4673.77,1855.37 4673.34,1863.13 4658.56,1862.32"/>
    <poly id="building_10" type="building" color="200,200,200" fill="true" layer="2" shape="4672.65,1835.97 4673.34,1827.99 4687.24,1829.18 4686.54,1837.17 4672.65,1835.97"/>
    <poly id="building_11" type="building" color="200,200,200" fill="true" layer="2" shape="4689.74,1835.14 4694.16,1822.68 4713.79,1829.56 4709.37,1842.01 4689.74,1835.14"/>
    <poly id="building_12" type="building" color="200,200,200" fill="true" layer="2" shape="4580.69,1851.42 4584.14,1837.50 4599.01,1841.14 4595.55,1855.06 4580.69,1851.42"/>
    <poly id="building_13" type="building" color="200,200,200" fill="true" layer="2" shape="4673.46,1694.93 4668.16,1684.23 4682.49,1681.19 4686.01,1692.76 4673.46,1694.93"/>
    <poly id="building_14" type="building" color="200,200,200" fill="true" layer="2" shape="4584.21,1912.79 4586.54,1896.36 4606.66,1899.57 4606.58,1914.69 4584.21,1912.79"/>
    <poly id="building_15" type="building" color="200,200,200" fill="true" layer="2" shape="4514.50,1925.50 4512.36,1917.88 4531.89,1912.70 4533.78,1920.31 4514.50,1925.50"/>
    <poly id="building_16" type="building" color="200,200,200" fill="true" layer="2" shape="4497.61,1945.13 4494.60,1921.46 4508.64,1919.71 4511.65,1943.37 4497.61,1945.13"/>
    <poly id="building_17" type="building" color="200,200,200" fill="true" layer="2" shape="4599.31,1856.31 4601.44,1831.90 4611.65,1832.78 4610.70,1843.64 4606.12,1843.25 4604.95,1856.79 4599.31,1856.31"/>
    <poly id="building_18" type="building" color="200,200,200" fill="true" layer="2" shape="4635.92,1860.15 4636.23,1851.03 4633.47,1850.94 4633.66,1845.17 4641.17,1845.41 4640.66,1860.32 4635.92,1860.15"/>
    <poly id="building_19" type="building" color="200,200,200" fill="true" layer="2" shape="4632.19,1895.59 4632.74,1880.24 4650.18,1880.86 4649.62,1896.22 4632.19,1895.59"/>
    <poly id="building_20" type="building" color="200,200,200" fill="true" layer="2" shape="4697.12,1894.87 4700.46,1880.33 4711.16,1882.77 4707.81,1897.30 4697.12,1894.87"/>
    <poly id="building_21" type="building" color="200,200,200" fill="true" layer="2" shape="4736.49,1923.16 4730.82,1912.32 4741.07,1907.03 4746.74,1917.87 4736.49,1923.16"/>
    <poly id="building_22" type="building" color="200,200,200" fill="true" layer="2" shape="4765.03,1894.66 4785.53,1866.79 4792.80,1870.19 4769.25,1898.22 4765.03,1894.66"/>
    <poly id="building_23" type="building" color="200,200,200" fill="true" layer="2" shape="4677.41,1917.13 4677.27,1913.26 4692.87,1912.66 4693.35,1917.72 4677.41,1917.13"/>
    <poly id="building_24" type="building" color="200,200,200" fill="true" layer="2" shape="4580.81,1830.09 4581.71,1815.12 4591.07,1815.67 4590.16,1830.65 4580.81,1830.09"/>
    <poly id="building_25" type="building" color="200,200,200" fill="true" layer="2" shape="4615.44,1850.96 4616.14,1842.77 4623.28,1843.37 4623.01,1846.47 4632.10,1847.24 4631.45,1854.72 4634.04,1854.95 4633.62,1859.80 4617.99,1858.48 4618.33,1854.41 4619.15,1854.49 4619.43,1851.30 4615.44,1850.96"/>
    <poly id="building_26" type="building" color="200,200,200" fill="true" layer="2" shape="4685.78,1863.56 4686.29,1848.05 4695.78,1848.36 4695.27,1863.87 4685.78,1863.56"/>
    <poly id="building_27" type="building" color="200,200,200" fill="true" layer="2" shape="4781.24,1942.66 4772.93,1928.68 4781.92,1924.27 4788.67,1937.08 4786.83,1938.46 4781.24,1942.66"/>
    <poly id="building_28" type="building" color="200,200,200" fill="true" layer="2" shape="4771.62,1916.48 4763.34,1907.01 4772.89,1898.78 4781.17,1908.24 4771.62,1916.48"/>
    <poly id="building_29" type="building" color="200,200,200" fill="true" layer="2" shape="4737.43,1933.50 4734.90,1926.77 4740.71,1924.61 4743.24,1931.34 4737.43,1933.50"/>
    <poly id="building_30" type="building" color="200,200,200" fill="true" layer="2" shape="4710.56,1934.37 4711.19,1926.05 4721.32,1925.91 4721.27,1934.43 4710.56,1934.37"/>
    <poly id="building_31" type="building" color="200,200,200" fill="true" layer="2" shape="4807.76,1977.05 4800.22,1964.23 4813.68,1960.43 4818.12,1968.77 4807.76,1977.05"/>
    <poly id="building_32" type="building" color="200,200,200" fill="true" layer="2" shape="4789.39,1948.69 4786.83,1938.46 4798.43,1932.49 4803.05,1945.28 4789.39,1948.69"/>
    <poly id="building_33" type="building" color="200,200,200" fill="true" layer="2" shape="4813.14,1913.20 4807.56,1899.62 4821.23,1893.11 4828.56,1906.51 4813.14,1913.20"/>
    <poly id="building_34" type="building" color="200,200,200" fill="true" layer="2" shape="4881.44,1891.09 4879.15,1879.66 4891.43,1878.37 4893.72,1889.21 4881.44,1891.09"/>
    <poly id="building_35" type="building" color="200,200,200" fill="true" layer="2" shape="4742.75,1966.27 4739.86,1957.74 4746.73,1949.25 4752.57,1948.32 4756.01,1962.08 4742.75,1966.27"/>
    <poly id="building_36" type="building" color="200,200,200" fill="true" layer="2" shape="4884.12,1937.75 4880.87,1924.96 4891.99,1922.89 4892.89,1937.79 4884.12,1937.75"/>
    <poly id="building_37" type="building" color="200,200,200" fill="true" layer="2" shape="4836.70,1954.35 4829.56,1940.96 4838.73,1938.30 4845.67,1951.68 4836.70,1954.35"/>
    <poly id="building_38" type="building" color="200,200,200" fill="true" layer="2" shape="4792.42,1966.13 4787.40,1957.01 4792.87,1954.72 4800.22,1964.23 4797.89,1964.80 4795.35,1964.98 4792.42,1966.13"/>
    <poly id="building_39" type="building" color="200,200,200" fill="true" layer="2" shape="4870.44,1984.71 4875.96,1974.68 4889.56,1979.96 4883.30,1986.33 4870.44,1984.71"/>
    <poly id="building_40" type="building" color="200,200,200" fill="true" layer="2" shape="5061.49,2135.27 5056.15,2130.37 5065.42,2120.42 5074.95,2129.18 5065.69,2139.13 5061.49,2135.27"/>
    <poly id="building_41" type="building" color="200,200,200" fill="true" layer="2" shape="4947.17,2097.80 4951.63,2087.21 4966.34,2093.31 4961.88,2103.90 4947.17,2097.80"/>
    <poly id="building_42" type="building" color="200,200,200" fill="true" layer="2" shape="4903.83,2085.30 4907.69,2074.20 4914.23,2076.44 4910.37,2087.54 4903.83,2085.30"/>
    <poly id="building_43" type="building" color="200,200,200" fill="true" layer="2" shape="4953.16,2153.23 4955.36,2140.28 4971.91,2144.62 4968.32,2159.70 4953.16,2153.23"/>
    <poly id="building_44" type="building" color="200,200,200" fill="true" layer="2" shape="4988.80,2102.71 4991.67,2094.31 5004.21,2098.53 5001.35,2106.93 4988.80,2102.71"/>
    <poly id="building_45" type="building" color="200,200,200" fill="true" layer="2" shape="4969.69,2108.14 4972.68,2096.14 4986.29,2099.49 4983.30,2111.48 4969.69,2108.14"/>
    <poly id="building_46" type="building" color="200,200,200" fill="true" layer="2" shape="5046.68,2142.88 5054.13,2133.11 5065.37,2141.59 5057.92,2151.35 5046.68,2142.88"/>
    <poly id="building_47" type="building" color="200,200,200" fill="true" layer="2" shape="5031.61,2162.14 5036.25,2152.12 5049.29,2158.07 5044.65,2168.09 5031.61,2162.14"/>
    <poly id="building_48" type="building" color="200,200,200" fill="true" layer="2" shape="5020.88,2134.60 5023.93,2122.30 5037.43,2125.60 5034.38,2137.89 5020.88,2134.60"/>
    <poly id="building_49" type="building" color="200,200,200" fill="true" layer="2" shape="4975.76,2074.30 4976.82,2065.50 4986.23,2066.60 4984.65,2079.79 4975.24,2078.68 4975.76,2074.30"/>
    <poly id="building_50" type="building" color="200,200,200" fill="true" layer="2" shape="4961.00,2069.26 4961.73,2060.51 4969.19,2061.12 4968.45,2069.87 4961.00,2069.26"/>
    <poly id="building_51" type="building" color="200,200,200" fill="true" layer="2" shape="4905.18,2045.19 4906.79,2036.88 4915.16,2038.66 4914.13,2047.37 4905.18,2045.19"/>
    <poly id="building_52" type="building" color="200,200,200" fill="true" layer="2" shape="5022.43,2087.08 5023.18,2084.39 5024.69,2079.00 5039.47,2083.09 5037.20,2091.18 5022.43,2087.08"/>
    <poly id="building_53" type="building" color="200,200,200" fill="true" layer="2" shape="5042.41,2092.57 5047.15,2084.58 5058.75,2091.39 5054.01,2099.37 5042.41,2092.57"/>
    <poly id="building_54" type="building" color="200,200,200" fill="true" layer="2" shape="5064.89,2082.81 5058.85,2073.26 5068.49,2067.26 5074.52,2076.80 5064.89,2082.81"/>
    <poly id="building_55" type="building" color="200,200,200" fill="true" layer="2" shape="5047.10,2067.58 5044.41,2058.08 5055.74,2052.73 5059.77,2064.16 5047.10,2067.58"/>
    <poly id="building_56" type="building" color="200,200,200" fill="true" layer="2" shape="4679.47,1899.24 4680.75,1879.35 4689.12,1879.89 4687.84,1899.77 4679.47,1899.24"/>
    <poly id="building_57" type="building" color="200,200,200" fill="true" layer="2" shape="5045.01,1232.99 5047.89,1217.85 5063.64,1220.81 5060.76,1235.95 5045.01,1232.99"/>
    <poly id="building_58" type="building" color="200,200,200" fill="true" layer="2" shape="4405.59,1679.89 4408.76,1673.45 4412.33,1667.33 4433.28,1651.78 4440.07,1660.96 4421.41,1673.84 4413.51,1683.98 4405.59,1679.89"/>
    <poly id="building_59" type="building" color="200,200,200" fill="true" layer="2" shape="4207.53,1063.19 4204.41,1047.35 4232.56,1042.75 4234.08,1059.09 4207.53,1063.19"/>
    <poly id="building_60" type="building" color="200,200,200" fill="true" layer="2" shape="4268.57,1057.69 4259.12,1037.61 4289.42,1026.16 4296.76,1043.60 4268.57,1057.69"/>
    <poly id="building_61" type="building" color="200,200,200" fill="true" layer="2" shape="4747.56,1045.16 4750.29,1029.35 4766.20,1032.07 4763.46,1047.87 4747.56,1045.16"/>
    <poly id="building_62" type="building" color="200,200,200" fill="true" layer="2" shape="4714.55,982.47 4719.98,970.58 4735.80,977.70 4730.36,989.60 4714.55,982.47"/>
    <poly id="building_63" type="building" color="200,200,200" fill="true" layer="2" shape="4556.97,1109.20 4567.66,1093.43 4583.52,1105.64 4577.10,1117.21 4556.97,1109.20"/>
    <poly id="building_64" type="building" color="200,200,200" fill="true" layer="2" shape="4884.28,1088.61 4893.41,1067.19 4911.81,1074.92 4902.68,1096.35 4884.28,1088.61"/>
    <poly id="building_65" type="building" color="200,200,200" fill="true" layer="2" shape="4757.66,1194.54 4756.15,1180.30 4773.66,1178.80 4772.52,1194.08 4757.66,1194.54"/>
    <poly id="building_66" type="building" color="200,200,200" fill="true" layer="2" shape="4850.75,1194.11 4851.43,1179.10 4869.47,1179.91 4868.79,1194.92 4850.75,1194.11"/>
    <poly id="building_67" type="building" color="200,200,200" fill="true" layer="2" shape="4948.71,1128.93 4950.97,1117.24 4973.14,1121.49 4970.87,1133.18 4948.71,1128.93"/>
    <poly id="building_68" type="building" color="200,200,200" fill="true" layer="2" shape="4827.98,1140.07 4830.71,1124.80 4857.19,1134.41 4852.87,1149.67 4827.98,1140.07"/>
    <poly id="building_69" type="building" color="200,200,200" fill="true" layer="2" shape="4989.59,1248.13 4994.64,1234.11 5017.35,1242.19 5012.30,1256.21 4989.59,1248.13"/>
    <poly id="building_70" type="building" color="200,200,200" fill="true" layer="2" shape="4931.62,1424.72 4939.69,1402.62 4960.85,1416.96 4950.67,1437.46 4931.62,1424.72"/>
    <poly id="building_71" type="building" color="200,200,200" fill="true" layer="2" shape="4902.40,1604.26 4903.81,1589.07 4925.10,1591.01 4923.70,1606.22 4902.40,1604.26"/>
    <poly id="building_72" type="building" color="200,200,200" fill="true" layer="2" shape="4892.30,1575.32 4897.99,1560.68 4913.18,1566.51 4907.48,1581.15 4892.30,1575.32"/>
    <poly id="building_73" type="building" color="200,200,200" fill="true" layer="2" shape="4916.02,1624.87 4914.98,1634.33 4886.58,1631.23 4887.62,1621.77 4916.02,1624.87"/>
    <poly id="building_74" type="building" color="200,200,200" fill="true" layer="2" shape="4851.29,1651.42 4854.01,1639.45 4868.72,1642.77 4866.00,1654.73 4851.29,1651.42"/>
    <poly id="building_75" type="building" color="200,200,200" fill="true" layer="2" shape="4888.45,1678.33 4886.95,1659.61 4895.96,1659.65 4895.60,1678.90 4888.45,1678.33"/>
    <poly id="building_76" type="building" color="200,200,200" fill="true" layer="2" shape="4830.71,2058.20 4838.49,2041.29 4855.72,2049.13 4847.95,2066.03 4830.71,2058.20"/>
    <poly id="building_77" type="building" color="200,200,200" fill="true" layer="2" shape="4856.73,2059.32 4861.30,2049.10 4874.48,2054.91 4869.91,2065.13 4856.73,2059.32"/>
    <poly id="building_78" type="building" color="200,200,200" fill="true" layer="2" shape="4381.24,1715.67 4385.86,1705.49 4399.47,1711.58 4394.86,1721.76 4381.24,1715.67"/>
    <poly id="building_79" type="building" color="200,200,200" fill="true" layer="2" shape="4361.64,1714.58 4359.29,1718.60 4352.07,1716.36 4358.45,1704.38 4364.95,1701.84 4371.61,1714.49 4361.64,1714.58"/>
    <poly id="building_80" type="building" color="200,200,200" fill="true" layer="2" shape="4315.96,1724.03 4304.28,1714.82 4314.47,1702.05 4326.16,1711.25 4315.96,1724.03"/>
    <poly id="building_81" type="building" color="200,200,200" fill="true" layer="2" shape="4290.37,1717.05 4286.63,1695.42 4297.48,1693.57 4301.21,1715.19 4290.37,1717.05"/>
    <poly id="building_82" type="building" color="200,200,200" fill="true" layer="2" shape="4307.78,1782.52 4313.80,1776.32 4313.63,1795.46 4307.78,1782.52"/>
    <poly id="building_83" type="building" color="200,200,200" fill="true" layer="2" shape="4300.66,1789.08 4306.08,1783.10 4312.51,1797.51 4306.66,1799.75 4300.66,1789.08"/>
    <poly id="building_84" type="building" color="200,200,200" fill="true" layer="2" shape="4289.15,1802.67 4294.50,1797.12 4298.59,1803.60 4292.96,1809.72 4289.15,1802.67"/>
    <poly id="building_85" type="building" color="200,200,200" fill="true" layer="2" shape="4341.09,1809.38 4337.15,1800.85 4345.58,1797.23 4349.53,1805.90 4341.09,1809.38"/>
    <poly id="building_86" type="building" color="200,200,200" fill="true" layer="2" shape="4408.94,1797.24 4414.18,1789.55 4419.84,1793.36 4414.61,1801.05 4408.94,1797.24"/>
    <poly id="building_87" type="building" color="200,200,200" fill="true" layer="2" shape="4478.31,1983.64 4466.62,1961.28 4489.68,1954.36 4501.10,1973.49 4478.31,1983.64"/>
    <poly id="building_88" type="building" color="200,200,200" fill="true" layer="2" shape="4130.06,1520.65 4134.42,1501.50 4146.61,1504.25 4142.24,1523.40 4130.06,1520.65"/>
    <poly id="building_89" type="building" color="200,200,200" fill="true" layer="2" shape="4153.19,1521.60 4156.13,1506.44 4167.91,1508.70 4164.97,1523.84 4153.19,1521.60"/>
    <poly id="building_90" type="building" color="200,200,200" fill="true" layer="2" shape="4080.33,1515.54 4080.91,1500.86 4097.30,1501.49 4096.95,1510.50 4096.73,1516.17 4084.97,1515.72 4080.33,1515.54"/>
    <poly id="building_91" type="building" color="200,200,200" fill="true" layer="2" shape="4147.13,1852.50 4142.80,1845.57 4138.78,1838.35 4150.29,1830.79 4159.17,1844.79 4147.13,1852.50"/>
    <poly id="building_92" type="building" color="200,200,200" fill="true" layer="2" shape="4133.53,1867.06 4131.92,1851.41 4142.80,1845.57 4150.60,1858.70 4133.53,1867.06"/>
    <poly id="building_93" type="building" color="200,200,200" fill="true" layer="2" shape="4106.23,1922.67 4100.30,1914.77 4112.78,1906.18 4118.47,1914.65 4106.23,1922.67"/>
    <poly id="building_94" type="building" color="200,200,200" fill="true" layer="2" shape="4039.21,1930.41 4029.92,1915.99 4043.16,1905.92 4059.26,1917.83 4039.21,1930.41"/>
    <poly id="building_95" type="building" color="200,200,200" fill="true" layer="2" shape="4776.19,2003.70 4786.57,1994.96 4794.80,2003.21 4784.72,2011.08 4776.19,2003.70"/>
    <poly id="building_96" type="building" color="200,200,200" fill="true" layer="2" shape="4787.95,2014.32 4795.36,2007.33 4801.82,2016.74 4797.94,2024.05 4787.95,2014.32"/>
    <poly id="building_97" type="building" color="200,200,200" fill="true" layer="2" shape="4745.50,2059.88 4754.08,2056.69 4749.10,2047.28 4742.59,2051.06 4745.50,2059.88"/>
    <poly id="building_98" type="building" color="200,200,200" fill="true" layer="2" shape="4740.12,2042.25 4738.69,2033.66 4749.77,2032.62 4749.35,2042.00 4740.12,2042.25"/>
    <poly id="building_99" type="building" color="200,200,200" fill="true" layer="2" shape="4761.89,2025.70 4760.76,2005.26 4772.69,2004.61 4773.81,2025.05 4761.89,2025.70"/>
    <poly id="building_100" type="building" color="200,200,200" fill="true" layer="2" shape="4844.54,1982.41 4856.86,1968.83 4865.55,1974.59 4852.78,1988.17 4844.54,1982.41"/>
    <poly id="building_101" type="building" color="200,200,200" fill="true" layer="2" shape="4830.72,2001.69 4836.23,1992.04 4847.57,1997.67 4838.66,2008.04 4830.72,2001.69"/>
    <poly id="building_102" type="building" color="200,200,200" fill="true" layer="2" shape="4784.71,2102.70 4788.45,2090.55 4797.88,2093.97 4794.29,2105.39 4784.71,2102.70"/>
    <poly id="building_103" type="building" color="200,200,200" fill="true" layer="2" shape="4803.92,2142.48 4805.33,2131.20 4809.23,2131.04 4810.10,2127.01 4816.54,2127.88 4815.83,2132.26 4821.60,2133.29 4820.02,2144.07 4803.92,2142.48"/>
    <poly id="building_104" type="building" color="200,200,200" fill="true" layer="2" shape="4812.00,2040.62 4821.82,2045.21 4826.71,2038.66 4824.29,2037.10 4825.98,2033.71 4821.28,2031.19 4818.64,2034.73 4815.54,2033.43 4812.00,2040.62"/>
    <poly id="building_105" type="building" color="200,200,200" fill="true" layer="2" shape="4573.68,2087.00 4581.85,2110.49 4587.82,2108.45 4579.65,2084.95 4573.68,2087.00"/>
    <poly id="building_106" type="building" color="200,200,200" fill="true" layer="2" shape="4740.37,1818.18 4764.04,1826.61 4766.89,1818.27 4743.66,1809.83 4740.37,1818.18"/>
    <poly id="water_107" type="water" color="170,211,223" fill="true" layer="0" shape="4537.64,1614.30 4565.14,1606.22 4542.92,1562.10 4514.83,1572.95 4537.64,1614.30"/>
    <poly id="water_108" type="water" color="170,211,223" fill="true" layer="0" shape="4336.89,2094.35 4351.70,2085.23 4342.65,2068.37 4327.85,2077.69 4334.55,2090.02 4336.89,2094.35"/>
    <poly id="building_109" type="building" color="200,200,200" fill="true" layer="2" shape="4225.41,1958.53 4232.80,1955.01 4236.00,1960.42 4267.27,1945.21 4271.48,1953.52 4232.21,1972.19 4225.41,1958.53"/>
    <poly id="building_110" type="building" color="200,200,200" fill="true" layer="2" shape="4085.42,1867.93 4100.43,1888.97 4109.59,1882.83 4094.46,1860.35 4085.42,1867.93"/>
    <poly id="building_111" type="building" color="200,200,200" fill="true" layer="2" shape="4381.85,1678.05 4366.84,1673.98 4364.98,1660.25 4373.72,1660.46 4373.87,1666.72 4386.63,1666.43 4381.85,1678.05"/>
    <poly id="building_112" type="building" color="200,200,200" fill="true" layer="2" shape="4458.74,1728.24 4464.42,1722.20 4461.50,1717.70 4492.36,1692.26 4506.75,1708.49 4496.08,1717.20 4490.47,1710.21 4463.00,1733.87 4458.74,1728.24"/>
    <poly id="building_113" type="building" color="200,200,200" fill="true" layer="2" shape="4286.27,1782.61 4306.61,1762.08 4299.00,1754.66 4282.38,1771.43 4283.14,1772.17 4279.42,1775.92 4286.27,1782.61"/>
    <poly id="building_114" type="building" color="200,200,200" fill="true" layer="2" shape="4211.61,1855.06 4213.04,1858.38 4214.79,1862.47 4222.88,1859.03 4220.47,1853.43 4216.92,1845.18 4208.84,1848.61 4209.39,1849.91 4211.61,1855.06"/>
    <poly id="building_115" type="building" color="200,200,200" fill="true" layer="2" shape="4798.11,1654.60 4806.05,1657.74 4810.96,1642.55 4804.22,1639.28 4798.11,1654.60"/>
    <poly id="building_116" type="building" color="200,200,200" fill="true" layer="2" shape="4648.53,1579.41 4658.39,1576.97 4657.92,1574.61 4720.68,1560.53 4716.81,1535.16 4706.94,1537.41 4709.18,1552.59 4680.34,1559.60 4678.50,1552.58 4668.20,1554.36 4669.26,1561.32 4645.47,1566.29 4648.53,1579.41"/>
    <poly id="building_117" type="building" color="200,200,200" fill="true" layer="2" shape="4555.00,1955.39 4559.64,1969.42 4525.38,1980.58 4520.76,1966.55 4555.00,1955.39"/>
    <poly id="building_118" type="building" color="200,200,200" fill="true" layer="2" shape="4336.97,1578.41 4358.75,1577.05 4358.26,1569.22 4336.48,1570.57 4336.97,1578.41"/>
    <poly id="water_119" type="water" color="170,211,223" fill="true" layer="0" shape="4504.33,1428.46 4489.36,1425.91 4478.55,1422.55 4471.14,1407.21 4476.62,1393.18 4494.54,1388.32 4516.61,1385.53 4537.39,1390.60 4538.10,1415.40 4521.00,1422.76 4504.33,1428.46"/>
    <poly id="building_120" type="building" color="200,200,200" fill="true" layer="2" shape="4110.86,1860.12 4117.52,1875.37 4123.43,1872.48 4126.22,1877.65 4134.96,1870.30 4131.89,1865.39 4123.12,1850.56 4110.86,1860.12"/>
    <poly id="building_121" type="building" color="200,200,200" fill="true" layer="2" shape="4622.50,2120.53 4647.67,2112.82 4652.10,2125.50 4630.51,2134.85 4622.50,2120.53"/>
    <poly id="building_122" type="building" color="200,200,200" fill="true" layer="2" shape="4319.44,1511.98 4352.70,1510.73 4352.21,1497.56 4318.94,1498.81 4319.44,1511.98"/>
    <poly id="building_123" type="building" color="200,200,200" fill="true" layer="2" shape="4244.61,1149.97 4241.21,1145.96 4242.41,1141.17 4256.17,1138.71 4258.28,1146.91 4244.61,1149.97"/>
    <poly id="building_124" type="building" color="200,200,200" fill="true" layer="2" shape="4282.80,1148.08 4293.90,1145.02 4290.50,1132.86 4279.39,1135.93 4282.80,1148.08"/>
    <poly id="building_125" type="building" color="200,200,200" fill="true" layer="2" shape="4255.55,1040.02 4263.16,1034.61 4262.90,1029.45 4254.74,1032.05 4255.55,1040.02"/>
    <poly id="water_126" type="water" color="170,211,223" fill="true" layer="0" shape="4662.67,2079.79 4698.57,2068.88 4688.43,2031.06 4652.65,2041.23 4662.67,2079.79"/>
    <poly id="building_127" type="building" color="200,200,200" fill="true" layer="2" shape="4248.56,1980.98 4243.30,1969.80 4261.65,1960.95 4266.91,1972.85 4265.48,1973.57 4248.56,1980.98"/>
    <poly id="building_128" type="building" color="200,200,200" fill="true" layer="2" shape="4254.04,1988.47 4251.42,1980.83 4266.21,1975.18 4268.98,1982.68 4254.04,1988.47"/>
    <poly id="building_129" type="building" color="200,200,200" fill="true" layer="2" shape="4268.29,1973.14 4278.06,1968.50 4272.80,1957.81 4263.53,1962.21 4268.29,1973.14"/>
    <poly id="building_130" type="building" color="200,200,200" fill="true" layer="2" shape="4275.49,1979.78 4281.70,1977.32 4278.49,1969.53 4272.72,1972.14 4275.49,1979.78"/>
    <poly id="building_131" type="building" color="200,200,200" fill="true" layer="2" shape="4233.88,1975.61 4242.76,1971.69 4247.73,1981.98 4238.41,1986.20 4233.88,1975.61"/>
    <poly id="building_132" type="building" color="200,200,200" fill="true" layer="2" shape="4826.93,966.35 4819.88,934.46 4812.65,935.82 4819.24,967.82 4826.93,966.35"/>
    <poly id="building_133" type="building" color="200,200,200" fill="true" layer="2" shape="4810.45,978.46 4807.42,936.02 4825.24,932.74 4831.26,964.96 4810.45,978.46"/>
    <poly id="building_134" type="building" color="200,200,200" fill="true" layer="2" shape="4871.34,1039.78 4873.85,1003.83 4888.55,1004.68 4886.01,1040.43 4871.34,1039.78"/>
    <poly id="building_135" type="building" color="200,200,200" fill="true" layer="2" shape="4644.36,1549.28 4655.86,1546.24 4660.85,1562.13 4649.54,1564.59 4644.36,1549.28"/>
    <poly id="building_136" type="building" color="200,200,200" fill="true" layer="2" shape="4516.81,1865.17 4527.45,1864.01 4525.16,1851.32 4521.49,1848.19 4515.51,1856.84 4516.81,1865.17"/>
    <poly id="building_137" type="building" color="200,200,200" fill="true" layer="2" shape="4496.18,1848.59 4500.47,1839.49 4519.93,1847.08 4514.11,1855.57 4496.18,1848.59"/>
    <poly id="building_138" type="building" color="200,200,200" fill="true" layer="2" shape="4355.28,1814.49 4371.82,1809.36 4376.18,1822.39 4359.92,1827.49 4355.28,1814.49"/>
    <poly id="building_139" type="building" color="200,200,200" fill="true" layer="2" shape="4787.13,1674.81 4759.41,1749.08 4786.43,1759.67 4814.77,1686.67 4787.13,1674.81"/>
    <poly id="building_140" type="building" color="200,200,200" fill="true" layer="2" shape="4333.12,1687.74 4335.11,1677.58 4345.22,1679.52 4343.14,1689.96 4333.12,1687.74"/>
    <poly id="building_141" type="building" color="200,200,200" fill="true" layer="2" shape="4130.69,1894.58 4140.33,1885.39 4155.23,1902.48 4147.09,1909.22 4145.45,1910.57 4130.69,1894.58"/>
    <poly id="building_142" type="building" color="200,200,200" fill="true" layer="2" shape="4899.89,1062.36 4902.50,1055.26 4910.32,1057.64 4908.16,1065.07 4899.89,1062.36"/>
    <poly id="building_143" type="building" color="200,200,200" fill="true" layer="2" shape="4354.80,1613.25 4354.63,1604.58 4314.00,1605.39 4314.18,1614.05 4354.80,1613.25"/>
    <poly id="building_144" type="building" color="200,200,200" fill="true" layer="2" shape="4428.97,1814.02 4438.66,1818.77 4440.20,1824.99 4446.99,1828.14 4439.51,1840.36 4431.20,1835.62 4429.17,1839.61 4418.61,1834.89 4428.97,1814.02"/>
    <poly id="building_145" type="building" color="200,200,200" fill="true" layer="2" shape="4595.36,1535.20 4623.92,1521.02 4636.15,1549.89 4610.14,1563.24 4595.36,1535.20"/>
    <poly id="building_146" type="building" color="200,200,200" fill="true" layer="2" shape="4474.40,1733.79 4509.59,1719.09 4516.47,1737.45 4482.96,1751.61 4474.40,1733.79"/>
    <poly id="building_147" type="building" color="200,200,200" fill="true" layer="2" shape="4521.84,1735.90 4521.63,1724.82 4552.80,1722.62 4554.02,1735.13 4521.84,1735.90"/>
    <poly id="building_148" type="building" color="200,200,200" fill="true" layer="2" shape="4419.21,1771.39 4433.43,1783.83 4442.57,1775.60 4439.79,1772.86 4457.62,1759.29 4446.15,1742.63 4419.21,1771.39"/>
    <poly id="building_149" type="building" color="200,200,200" fill="true" layer="2" shape="4452.25,1926.54 4469.80,1958.77 4496.19,1949.76 4492.67,1919.94 4481.40,1906.85 4452.25,1926.54"/>
    <poly id="building_150" type="building" color="200,200,200" fill="true" layer="2" shape="4052.50,1543.37 4037.07,1548.41 4035.50,1543.66 4050.92,1538.62 4052.50,1543.37"/>
    <poly id="building_151" type="building" color="200,200,200" fill="true" layer="2" shape="4035.02,1575.88 4047.20,1574.28 4048.55,1584.48 4036.37,1586.07 4035.02,1575.88"/>
    <poly id="building_152" type="building" color="200,200,200" fill="true" layer="2" shape="4024.34,1751.37 4020.34,1759.79 4013.32,1756.49 4017.32,1748.08 4024.34,1751.37"/>
    <poly id="building_153" type="building" color="200,200,200" fill="true" layer="2" shape="4055.90,1627.26 4045.11,1629.39 4043.98,1623.75 4054.77,1621.62 4055.90,1627.26"/>
    <poly id="building_154" type="building" color="200,200,200" fill="true" layer="2" shape="4037.82,1999.54 4040.92,1993.07 4045.75,1995.35 4042.64,2001.83 4037.82,1999.54"/>
    <poly id="building_155" type="building" color="200,200,200" fill="true" layer="2" shape="4017.71,1971.67 4010.49,1975.36 4007.85,1970.27 4015.07,1966.58 4017.71,1971.67"/>
    <poly id="building_156" type="building" color="200,200,200" fill="true" layer="2" shape="4049.30,1503.46 4063.51,1499.49 4065.79,1507.53 4051.58,1511.50 4049.30,1503.46"/>
    <poly id="building_157" type="building" color="200,200,200" fill="true" layer="2" shape="4006.28,1754.75 4014.84,1761.90 4008.20,1769.74 3999.65,1762.60 4006.28,1754.75"/>
    <poly id="building_158" type="building" color="200,200,200" fill="true" layer="2" shape="4042.96,1256.47 4042.16,1274.22 4029.09,1273.63 4029.88,1255.88 4042.96,1256.47"/>
    <poly id="building_159" type="building" color="200,200,200" fill="true" layer="2" shape="4017.22,1895.53 4023.13,1892.94 4026.94,1901.50 4021.04,1904.10 4017.22,1895.53"/>
    <poly id="building_160" type="building" color="200,200,200" fill="true" layer="2" shape="4017.80,1558.22 4034.87,1552.40 4037.27,1559.36 4020.22,1565.19 4017.80,1558.22"/>
    <poly id="building_161" type="building" color="200,200,200" fill="true" layer="2" shape="4031.01,2193.60 4017.14,2193.80 4016.98,2183.06 4030.85,2182.86 4031.01,2193.60"/>
    <poly id="building_162" type="building" color="200,200,200" fill="true" layer="2" shape="4057.91,1817.63 4065.78,1829.90 4045.27,1842.89 4038.37,1832.16 4053.14,1822.82 4052.15,1821.27 4057.91,1817.63"/>