<?xml version="1.0" encoding="UTF-8"?>

<!-- generated on 2026-03-18 00:58:58 by Eclipse SUMO netconvert Version 1.24.0
<netconvertConfiguration xmlns:xsi="http://www.w3.org/2001/XMLSchema-instance" xsi:noNamespaceSchemaLocation="http://sumo.dlr.de/xsd/netconvertConfiguration.xsd">

    <input>
        <osm-files value="map.osm"/>
    </input>

    <output>
        <output-file value="area.net.xml"/>
    </output>

    <projection>
        <proj.utm value="true"/>
    </projection>

    <processing>
        <geometry.remove value="true"/>
        <roundabouts.guess value="true"/>
    </processing>

    <ramp_guessing>
        <ramps.guess value="true"/>
    </ramp_guessing>

    <junctions>
        <no-turnarounds value="true"/>
    </junctions>

</netconvertConfiguration>
-->

<net version="1.20" junctionCornerDetail="5" limitTurnSpeed="5.50" xmlns:xsi="http://www.w3.org/2001/XMLSchema-instance" xsi:noNamespaceSchemaLocation="http://sumo.dlr.de/xsd/net_file.xsd">

    <location netOffset="-704440.65,-951447.53" convBoundary="0.00,0.00,8703.94,5688.29" origBoundary="76.857807,8.602716,76.936910,8.654082" projParameter="+proj=utm +zone=43 +ellps=WGS84 +datum=WGS84 +units=m +no_defs"/>

    <type id="highway.path" priority="1" numLanes="1" speed="5.56" allow="pedestrian bicycle" oneway="0" width="2.00"/>
    <type id="highway.primary" priority="12" numLanes="2" speed="27.78" disallow="tram rail_urban rail rail_electric rail_fast ship container cable_car subway aircraft wheelchair scooter drone" oneway="0"/>
    <type id="highway.residential" priority="3" numLanes="1" speed="13.89" disallow="tram rail_urban rail rail_electric rail_fast ship container cable_car subway aircraft wheelchair scooter drone" oneway="0"/>
    <type id="highway.secondary" priority="11" numLanes="1" speed="27.78" disallow="tram rail_urban rail rail_electric rail_fast ship container cable_car subway aircraft wheelchair scooter drone" oneway="0"/>
    <type id="highway.service" priority="1" numLanes="1" speed="5.56" allow="pedestrian delivery bicycle" oneway="0"/>
    <type id="highway.tertiary" priority="10" numLanes="1" speed="22.22" disallow="tram rail_urban rail rail_electric rail_fast ship container cable_car subway aircraft wheelchair scooter drone" oneway="0"/>
    <type id="highway.unclassified" priority="4" numLanes="1" speed="13.89" disallow="tram rail_urban rail rail_electric rail_fast ship container cable_car subway aircraft wheelchair scooter drone" oneway="0"/>

    <edge id=":10637213169_0" function="internal">
        <lane id=":10637213169_0_0" index="0" disallow="tram rail_urban rail rail_electric rail_fast ship container cable_car subway aircraft wheelchair scooter drone" speed="6.53" length="8.62" shape="4975.76,2088.56 4973.44,2088.25 4971.54,2088.74 4970.04,2090.02 4968.95,2092.09"/>
    </edge>
    <edge id=":10637213169_1" function="internal">
        <lane id=":10637213169_1_0" index="0" disallow="tram rail_urban rail rail_electric rail_fast ship container cable_car subway aircraft wheelchair scooter drone" speed="27.78" length="13.68" shape="4975.76,2088.56 4972.36,2087.56 4969.24,2086.51 4966.15,2085.35 4962.88,2084.00"/>
    </edge>
    <edge id=":10637213169_2" function="internal">
        <lane id=":10637213169_2_0" index="0" disallow="tram rail_urban rail rail_electric rail_fast ship container cable_car subway aircraft wheelchair scooter drone" speed="27.78" length="13.26" shape="4964.14,2081.06 4967.36,2082.39 4970.30,2083.51 4973.29,2084.50 4976.63,2085.48"/>
    </edge>
    <edge id=":10637213169_3" function="internal">
        <lane id=":10637213169_3_0" index="0" disallow="tram rail_urban rail rail_electric rail_fast ship container cable_car subway aircraft wheelchair scooter drone" speed="8.01" length="3.83" shape="4964.14,2081.06 4967.29,2082.97 4967.38,2083.10"/>
    </edge>
    <edge id=":10637213169_6" function="internal">
        <lane id=":10637213169_6_0" index="0" disallow="tram rail_urban rail rail_electric rail_fast ship container cable_car subway aircraft wheelchair scooter drone" speed="8.01" length="9.70" shape="4967.38,2083.10 4969.13,2085.45 4969.69,2088.49 4968.95,2092.09"/>
    </edge>
    <edge id=":10637213169_4" function="internal">
        <lane id=":10637213169_4_0" index="0" disallow="tram rail_urban rail rail_electric rail_fast ship container cable_car subway aircraft wheelchair scooter drone" speed="6.52" length="8.61" shape="4965.94,2091.02 4966.41,2088.73 4966.05,2086.79 4964.88,2085.21 4962.88,2084.00"/>
    </edge>
    <edge id=":10637213169_5" function="internal">
        <lane id=":10637213169_5_0" index="0" disallow="tram rail_urban rail rail_electric rail_fast ship container cable_car subway aircraft wheelchair scooter drone" speed="8.02" length="13.53" shape="4965.94,2091.02 4967.64,2087.76 4969.99,2085.75 4972.99,2084.99 4976.63,2085.48"/>
    </edge>
    <edge id=":11222325867_0" function="internal">
        <lane id=":11222325867_0_0" index="0" disallow="tram rail_urban rail rail_electric rail_fast ship container cable_car subway aircraft wheelchair scooter drone" speed="27.78" length="12.94" shape="4356.30,1515.45 4356.02,1511.70 4355.78,1509.13 4355.34,1506.59 4354.51,1502.92"/>
        <lane id=":11222325867_0_1" index="1" disallow="tram rail_urban rail rail_electric rail_fast ship container cable_car subway aircraft wheelchair scooter drone" speed="27.78" length="12.94" shape="4359.49,1515.21 4359.20,1511.31 4358.94,1508.64 4358.49,1505.99 4357.63,1502.18"/>
    </edge>
    <edge id=":11222325867_2" function="internal">
        <lane id=":11222325867_2_0" index="0" disallow="tram rail_urban rail rail_electric rail_fast ship container cable_car subway aircraft wheelchair scooter drone" speed="8.56" length="3.85" shape="4359.49,1515.21 4359.93,1511.39"/>
    </edge>
    <edge id=":11222325867_8" function="internal">
        <lane id=":11222325867_8_0" index="0" disallow="tram rail_urban rail rail_electric rail_fast ship container cable_car subway aircraft wheelchair scooter drone" speed="8.56" length="13.45" shape="4359.93,1511.39 4359.96,1511.12 4362.07,1508.19 4365.82,1506.43 4371.20,1505.83"/>
    </edge>
    <edge id=":11222325867_3" function="internal">
        <lane id=":11222325867_3_0" index="0" disallow="tram rail_urban rail rail_electric rail_fast ship container cable_car subway aircraft wheelchair scooter drone" speed="6.36" length="9.04" shape="4371.18,1509.03 4368.70,1509.39 4366.98,1510.46 4366.04,1512.24 4365.87,1514.73"/>
    </edge>
    <edge id=":11222325867_4" function="internal">
        <lane id=":11222325867_4_0" index="0" disallow="tram rail_urban rail rail_electric rail_fast ship container cable_car subway aircraft wheelchair scooter drone" speed="9.38" length="16.39" shape="4371.18,1509.03 4365.86,1508.61 4361.83,1507.33 4359.09,1505.19 4357.63,1502.18"/>
    </edge>
    <edge id=":11222325867_5" function="internal">
        <lane id=":11222325867_5_0" index="0" disallow="tram rail_urban rail rail_electric rail_fast ship container cable_car subway aircraft wheelchair scooter drone" speed="7.37" length="9.77" shape="4363.85,1500.70 4364.77,1502.95 4366.30,1504.56 4368.45,1505.51 4371.20,1505.83"/>
    </edge>
    <edge id=":11222325867_6" function="internal">
        <lane id=":11222325867_6_0" index="0" disallow="tram rail_urban rail rail_electric rail_fast ship container cable_car subway aircraft wheelchair scooter drone" speed="27.78" length="13.95" shape="4363.85,1500.70 4364.79,1504.81 4365.28,1507.65 4365.56,1510.53 4365.87,1514.73"/>
        <lane id=":11222325867_6_1" index="1" disallow="tram rail_urban rail rail_electric rail_fast ship container cable_car subway aircraft wheelchair scooter drone" speed="27.78" length="13.95" shape="4360.74,1501.44 4361.64,1505.40 4362.11,1508.14 4362.38,1510.92 4362.68,1514.97"/>
    </edge>
    <edge id=":11222325871_0" function="internal">
        <lane id=":11222325871_0_0" index="0" disallow="tram rail_urban rail rail_electric rail_fast ship container cable_car subway aircraft wheelchair scooter drone" speed="13.89" length="14.82" shape="4437.86,1510.75 4423.04,1510.83"/>
    </edge>
    <edge id=":11222325871_1" function="internal">
        <lane id=":11222325871_1_0" index="0" disallow="tram rail_urban rail rail_electric rail_fast ship container cable_car subway aircraft wheelchair scooter drone" speed="9.10" length="3.91" shape="4437.86,1510.75 4434.17,1510.22 4434.01,1510.12"/>
    </edge>
    <edge id=":11222325871_6" function="internal">
        <lane id=":11222325871_6_0" index="0" disallow="tram rail_urban rail rail_electric rail_fast ship container cable_car subway aircraft wheelchair scooter drone" speed="9.10" length="11.18" shape="4434.01,1510.12 4431.20,1508.53 4428.92,1505.68 4427.35,1501.68"/>
    </edge>
    <edge id=":11222325871_2" function="internal">
        <lane id=":11222325871_2_0" index="0" disallow="tram rail_urban rail rail_electric rail_fast ship container cable_car subway aircraft wheelchair scooter drone" speed="7.86" length="11.05" shape="4430.37,1500.61 4431.54,1503.67 4433.17,1505.85 4435.26,1507.14 4437.82,1507.56"/>
    </edge>
    <edge id=":11222325871_3" function="internal">
        <lane id=":11222325871_3_0" index="0" disallow="tram rail_urban rail rail_electric rail_fast ship container cable_car subway aircraft wheelchair scooter drone" speed="7.64" length="15.39" shape="4430.37,1500.61 4430.94,1505.08 4429.90,1508.27 4427.27,1510.19 4423.04,1510.83"/>
    </edge>
    <edge id=":11222325871_4" function="internal">
        <lane id=":11222325871_4_0" index="0" disallow="tram rail_urban rail rail_electric rail_fast ship container cable_car subway aircraft wheelchair scooter drone" speed="5.99" length="8.99" shape="4423.03,1507.63 4425.51,1507.26 4427.06,1506.14 4427.67,1504.28 4427.35,1501.68"/>
    </edge>
    <edge id=":11222325871_5" function="internal">
        <lane id=":11222325871_5_0" index="0" disallow="tram rail_urban rail rail_electric rail_fast ship container cable_car subway aircraft wheelchair scooter drone" speed="13.89" length="14.79" shape="4423.03,1507.63 4437.82,1507.56"/>
    </edge>
    <edge id=":11222325877_0" function="internal">
        <lane id=":11222325877_0_0" index="0" disallow="tram rail_urban rail rail_electric rail_fast ship container cable_car subway aircraft wheelchair scooter drone" speed="13.89" length="13.40" shape="4522.22,1491.48 4521.14,1494.81 4520.42,1497.92 4519.93,1501.09 4519.58,1504.57"/>
    </edge>
    <edge id=":11222325877_1" function="internal">
        <lane id=":11222325877_1_0" index="0" disallow="tram rail_urban rail rail_electric rail_fast ship container cable_car subway aircraft wheelchair scooter drone" speed="10.58" length="3.14" shape="4522.22,1491.48 4520.74,1494.10 4520.65,1494.19"/>
    </edge>
    <edge id=":11222325877_6" function="internal">
        <lane id=":11222325877_6_0" index="0" disallow="tram rail_urban rail rail_electric rail_fast ship container cable_car subway aircraft wheelchair scooter drone" speed="10.58" length="11.07" shape="4520.65,1494.19 4518.38,1496.28 4515.14,1498.01 4511.02,1499.30"/>
    </edge>
    <edge id=":11222325877_2" function="internal">
        <lane id=":11222325877_2_0" index="0" disallow="tram rail_urban rail rail_electric rail_fast ship container cable_car subway aircraft wheelchair scooter drone" speed="9.25" length="10.73" shape="4510.63,1496.11 4513.83,1495.13 4516.32,1493.85 4518.12,1492.26 4519.22,1490.38"/>
    </edge>
    <edge id=":11222325877_3" function="internal">
        <lane id=":11222325877_3_0" index="0" disallow="tram rail_urban rail rail_electric rail_fast ship container cable_car subway aircraft wheelchair scooter drone" speed="7.51" length="15.37" shape="4510.63,1496.11 4514.89,1495.77 4517.81,1497.07 4519.37,1500.00 4519.58,1504.57"/>
    </edge>
    <edge id=":11222325877_4" function="internal">
        <lane id=":11222325877_4_0" index="0" disallow="tram rail_urban rail rail_electric rail_fast ship container cable_car subway aircraft wheelchair scooter drone" speed="5.95" length="9.16" shape="4516.39,1504.30 4516.26,1501.59 4515.32,1499.86 4513.58,1499.10 4511.02,1499.30"/>
    </edge>
    <edge id=":11222325877_5" function="internal">
        <lane id=":11222325877_5_0" index="0" disallow="tram rail_urban rail rail_electric rail_fast ship container cable_car subway aircraft wheelchair scooter drone" speed="13.89" length="14.25" shape="4516.39,1504.30 4516.77,1500.68 4517.32,1497.23 4518.11,1493.83 4519.22,1490.38"/>
    </edge>
    <edge id=":11222368857_0" function="internal">
        <lane id=":11222368857_0_0" index="0" disallow="tram rail_urban rail rail_electric rail_fast ship container cable_car subway aircraft wheelchair scooter drone" speed="6.53" length="8.22" shape="4796.46,1990.63 4794.73,1989.25 4792.93,1988.67 4791.05,1988.91 4789.10,1989.96"/>
    </edge>
    <edge id=":11222368857_1" function="internal">
        <lane id=":11222368857_1_0" index="0" disallow="tram rail_urban rail rail_electric rail_fast ship container cable_car subway aircraft wheelchair scooter drone" speed="27.78" length="12.94" shape="4796.46,1990.63 4794.17,1988.08 4792.31,1985.67 4790.68,1983.10 4789.08,1980.07"/>
    </edge>
    <edge id=":11222368857_2" function="internal">
        <lane id=":11222368857_2_0" index="0" disallow="tram rail_urban rail rail_electric rail_fast ship container cable_car subway aircraft wheelchair scooter drone" speed="27.78" length="11.98" shape="4791.95,1978.66 4793.47,1981.56 4794.91,1983.86 4796.58,1986.00 4798.78,1988.42"/>
    </edge>
    <edge id=":11222368857_3" function="internal">
        <lane id=":11222368857_3_0" index="0" disallow="tram rail_urban rail rail_electric rail_fast ship container cable_car subway aircraft wheelchair scooter drone" speed="8.16" length="3.59" shape="4791.95,1978.66 4793.03,1981.90 4793.02,1982.07"/>
    </edge>
    <edge id=":11222368857_6" function="internal">
        <lane id=":11222368857_6_0" index="0" disallow="tram rail_urban rail rail_electric rail_fast ship container cable_car subway aircraft wheelchair scooter drone" speed="8.16" length="9.26" shape="4793.02,1982.07 4792.91,1984.87 4791.60,1987.55 4789.10,1989.96"/>
    </edge>
    <edge id=":11222368857_4" function="internal">
        <lane id=":11222368857_4_0" index="0" disallow="tram rail_urban rail rail_electric rail_fast ship container cable_car subway aircraft wheelchair scooter drone" speed="6.68" length="8.31" shape="4787.21,1987.37 4788.83,1985.82 4789.69,1984.08 4789.77,1982.16 4789.08,1980.07"/>
    </edge>
    <edge id=":11222368857_5" function="internal">
        <lane id=":11222368857_5_0" index="0" disallow="tram rail_urban rail rail_electric rail_fast ship container cable_car subway aircraft wheelchair scooter drone" speed="8.03" length="12.91" shape="4787.21,1987.37 4790.28,1985.73 4793.23,1985.35 4796.06,1986.25 4798.78,1988.42"/>
    </edge>
    <edge id=":11222371304_0" function="internal">
        <lane id=":11222371304_0_0" index="0" disallow="tram rail_urban rail rail_electric rail_fast ship container cable_car subway aircraft wheelchair scooter drone" speed="13.89" length="12.85" shape="4527.79,1447.34 4526.66,1450.56 4525.95,1453.48 4525.56,1456.47 4525.35,1459.88"/>
    </edge>
    <edge id=":11222371304_1" function="internal">
        <lane id=":11222371304_1_0" index="0" disallow="tram rail_urban rail rail_electric rail_fast ship container cable_car subway aircraft wheelchair scooter drone" speed="9.35" length="3.39" shape="4527.79,1447.34 4526.10,1450.28"/>
    </edge>
    <edge id=":11222371304_6" function="internal">
        <lane id=":11222371304_6_0" index="0" disallow="tram rail_urban rail rail_electric rail_fast ship container cable_car subway aircraft wheelchair scooter drone" speed="9.35" length="10.49" shape="4526.10,1450.28 4523.69,1452.39 4520.55,1453.68 4516.69,1454.15"/>
    </edge>
    <edge id=":11222371304_2" function="internal">
        <lane id=":11222371304_2_0" index="0" disallow="tram rail_urban rail rail_electric rail_fast ship container cable_car subway aircraft wheelchair scooter drone" speed="8.05" length="10.08" shape="4516.65,1450.95 4519.52,1450.62 4521.84,1449.71 4523.61,1448.23 4524.82,1446.16"/>
    </edge>
    <edge id=":11222371304_3" function="internal">
        <lane id=":11222371304_3_0" index="0" disallow="tram rail_urban rail rail_electric rail_fast ship container cable_car subway aircraft wheelchair scooter drone" speed="7.91" length="14.39" shape="4516.65,1450.95 4520.59,1451.47 4523.35,1453.13 4524.94,1455.93 4525.35,1459.88"/>
    </edge>
    <edge id=":11222371304_4" function="internal">
        <lane id=":11222371304_4_0" index="0" disallow="tram rail_urban rail rail_electric rail_fast ship container cable_car subway aircraft wheelchair scooter drone" speed="6.40" length="9.04" shape="4522.16,1459.76 4521.90,1457.28 4520.90,1455.52 4519.17,1454.47 4516.69,1454.15"/>
    </edge>
    <edge id=":11222371304_5" function="internal">
        <lane id=":11222371304_5_0" index="0" disallow="tram rail_urban rail rail_electric rail_fast ship container cable_car subway aircraft wheelchair scooter drone" speed="13.89" length="13.93" shape="4522.16,1459.76 4522.39,1456.18 4522.87,1452.83 4523.65,1449.54 4524.82,1446.16"/>
    </edge>
    <edge id=":11222472875_0" function="internal">
        <lane id=":11222472875_0_0" index="0" disallow="tram rail_urban rail rail_electric rail_fast ship container cable_car subway aircraft wheelchair scooter drone" speed="11.11" length="4.93" shape="4486.84,1828.01 4488.11,1828.59 4489.02,1828.90 4489.95,1829.16 4491.29,1829.60"/>
        <lane id=":11222472875_0_1" index="1" disallow="tram rail_urban rail rail_electric rail_fast ship container cable_car subway aircraft wheelchair scooter drone" speed="11.11" length="4.93" shape="4485.41,1830.87 4486.78,1831.51 4487.76,1831.85 4488.77,1832.14 4490.21,1832.61"/>
    </edge>
    <edge id=":11222472875_2" function="internal">
        <lane id=":11222472875_2_0" index="0" allow="pedestrian delivery bicycle" speed="4.96" length="4.18" shape="4485.41,1830.87 4486.12,1831.43 4486.50,1832.24 4486.56,1833.29 4486.30,1834.59"/>
    </edge>
    <edge id=":11222472875_3" function="internal">
        <lane id=":11222472875_3_0" index="0" allow="pedestrian delivery bicycle" speed="6.03" length="7.91" shape="4483.23,1833.68 4484.03,1832.40 4485.46,1831.80 4487.52,1831.87 4490.21,1832.61"/>
    </edge>
    <edge id=":11222473495_0" function="internal">
        <lane id=":11222473495_0_0" index="0" disallow="tram rail_urban rail rail_electric rail_fast ship container cable_car subway aircraft wheelchair scooter drone" speed="11.11" length="13.78" shape="4411.89,1698.77 4408.62,1696.56 4406.30,1695.15 4403.82,1694.08 4400.07,1692.91"/>
        <lane id=":11222473495_0_1" index="1" disallow="tram rail_urban rail rail_electric rail_fast ship container cable_car subway aircraft wheelchair scooter drone" speed="11.11" length="13.78" shape="4413.66,1696.11 4410.15,1693.74 4407.65,1692.23 4404.98,1691.09 4400.95,1689.83"/>
    </edge>
    <edge id=":11222473495_2" function="internal">
        <lane id=":11222473495_2_0" index="0" disallow="tram rail_urban rail rail_electric rail_fast ship container cable_car subway aircraft wheelchair scooter drone" speed="6.93" length="12.18" shape="4413.66,1696.11 4410.59,1693.56 4409.10,1691.08 4409.18,1688.66 4410.84,1686.32"/>
    </edge>
    <edge id=":11222473495_3" function="internal">
        <lane id=":11222473495_3_0" index="0" disallow="tram rail_urban rail rail_electric rail_fast ship container cable_car subway aircraft wheelchair scooter drone" speed="9.72" length="12.67" shape="4413.04,1688.65 4410.86,1690.06 4408.12,1690.73 4404.82,1690.65 4400.95,1689.83"/>
    </edge>
    <edge id=":11222532332_0" function="internal">
        <lane id=":11222532332_0_0" index="0" disallow="tram rail_urban rail rail_electric rail_fast ship container cable_car subway aircraft wheelchair scooter drone" speed="6.67" length="8.80" shape="4455.41,1015.23 4453.80,1013.75 4451.95,1013.13 4449.87,1013.36 4447.55,1014.46"/>
    </edge>
    <edge id=":11222532332_1" function="internal">
        <lane id=":11222532332_1_0" index="0" disallow="tram rail_urban rail rail_electric rail_fast ship container cable_car subway aircraft wheelchair scooter drone" speed="10.90" length="13.62" shape="4455.41,1015.23 4453.28,1011.99 4451.99,1008.80 4451.54,1005.66 4451.92,1002.55"/>
    </edge>
    <edge id=":11222532332_2" function="internal">
        <lane id=":11222532332_2_0" index="0" disallow="tram rail_urban rail rail_electric rail_fast ship container cable_car subway aircraft wheelchair scooter drone" speed="9.70" length="10.69" shape="4455.01,1003.35 4454.75,1005.71 4455.14,1008.15 4456.20,1010.66 4457.93,1013.26"/>
    </edge>
    <edge id=":11222532332_3" function="internal">
        <lane id=":11222532332_3_0" index="0" disallow="tram rail_urban rail rail_electric rail_fast ship container cable_car subway aircraft wheelchair scooter drone" speed="12.52" length="13.73" shape="4455.01,1003.35 4453.91,1006.76 4452.40,1009.73 4450.33,1012.28 4447.55,1014.46"/>
    </edge>
    <edge id=":11222532332_4" function="internal">
        <lane id=":11222532332_4_0" index="0" disallow="tram rail_urban rail rail_electric rail_fast ship container cable_car subway aircraft wheelchair scooter drone" speed="11.70" length="11.94" shape="4445.35,1012.06 4447.98,1010.14 4449.75,1008.13 4450.96,1005.71 4451.92,1002.55"/>
    </edge>
    <edge id=":11222532332_5" function="internal">
        <lane id=":11222532332_5_0" index="0" disallow="tram rail_urban rail rail_electric rail_fast ship container cable_car subway aircraft wheelchair scooter drone" speed="8.29" length="3.49" shape="4445.35,1012.06 4448.50,1010.57"/>
    </edge>
    <edge id=":11222532332_6" function="internal">
        <lane id=":11222532332_6_0" index="0" disallow="tram rail_urban rail rail_electric rail_fast ship container cable_car subway aircraft wheelchair scooter drone" speed="8.29" length="10.59" shape="4448.50,1010.57 4449.07,1010.30 4452.40,1009.91 4455.36,1010.90 4457.93,1013.26"/>
    </edge>
    <edge id=":11222542869_0" function="internal">
        <lane id=":11222542869_0_0" index="0" disallow="tram rail_urban rail rail_electric rail_fast ship container cable_car subway aircraft wheelchair scooter drone" speed="11.11" length="12.96" shape="4843.83,1548.48 4837.85,1559.98"/>
    </edge>
    <edge id=":11222542869_1" function="internal">
        <lane id=":11222542869_1_0" index="0" disallow="tram rail_urban rail rail_electric rail_fast ship container cable_car subway aircraft wheelchair scooter drone" speed="8.84" length="2.90" shape="4843.83,1548.48 4841.94,1550.69"/>
    </edge>
    <edge id=":11222542869_6" function="internal">
        <lane id=":11222542869_6_0" index="0" disallow="tram rail_urban rail rail_electric rail_fast ship container cable_car subway aircraft wheelchair scooter drone" speed="8.84" length="10.57" shape="4841.94,1550.69 4839.30,1551.99 4835.90,1552.38 4831.73,1551.87"/>
    </edge>
    <edge id=":11222542869_2" function="internal">
        <lane id=":11222542869_2_0" index="0" disallow="tram rail_urban rail rail_electric rail_fast ship container cable_car subway aircraft wheelchair scooter drone" speed="7.48" length="9.42" shape="4832.40,1548.74 4835.48,1549.17 4837.96,1549.00 4839.81,1548.25 4841.04,1546.91"/>
    </edge>
    <edge id=":11222542869_3" function="internal">
        <lane id=":11222542869_3_0" index="0" disallow="tram rail_urban rail rail_electric rail_fast ship container cable_car subway aircraft wheelchair scooter drone" speed="7.63" length="15.24" shape="4832.40,1548.74 4836.47,1550.23 4838.74,1552.61 4839.19,1555.85 4837.85,1559.98"/>
    </edge>
    <edge id=":11222542869_4" function="internal">
        <lane id=":11222542869_4_0" index="0" disallow="tram rail_urban rail rail_electric rail_fast ship container cable_car subway aircraft wheelchair scooter drone" speed="6.03" length="9.07" shape="4834.98,1558.56 4835.78,1556.10 4835.51,1554.17 4834.16,1552.76 4831.73,1551.87"/>
    </edge>
    <edge id=":11222542869_5" function="internal">
        <lane id=":11222542869_5_0" index="0" disallow="tram rail_urban rail rail_electric rail_fast ship container cable_car subway aircraft wheelchair scooter drone" speed="11.11" length="13.14" shape="4834.98,1558.56 4841.04,1546.91"/>
    </edge>
    <edge id=":11227965155_0" function="internal">
        <lane id=":11227965155_0_0" index="0" disallow="tram rail_urban rail rail_electric rail_fast ship container cable_car subway aircraft wheelchair scooter drone" speed="5.16" length="6.00" shape="4228.24,983.73 4227.43,983.54 4225.73,984.10 4223.90,984.91 4222.65,985.47"/>
    </edge>
    <edge id=":11227965155_1" function="internal">
        <lane id=":11227965155_1_0" index="0" disallow="tram rail_urban rail rail_electric rail_fast ship container cable_car subway aircraft wheelchair scooter drone" speed="27.78" length="8.64" shape="4228.24,983.73 4226.92,975.03"/>
        <lane id=":11227965155_1_1" index="1" disallow="tram rail_urban rail rail_electric rail_fast ship container cable_car subway aircraft wheelchair scooter drone" speed="27.78" length="8.64" shape="4231.39,983.14 4230.12,974.75"/>
    </edge>
    <edge id=":11227965155_3" function="internal">
        <lane id=":11227965155_3_0" index="0" disallow="tram rail_urban rail rail_electric rail_fast ship container cable_car subway aircraft wheelchair scooter drone" speed="27.78" length="8.02" shape="4236.51,974.20 4237.68,981.98"/>
        <lane id=":11227965155_3_1" index="1" disallow="tram rail_urban rail rail_electric rail_fast ship container cable_car subway aircraft wheelchair scooter drone" speed="27.78" length="8.02" shape="4233.31,974.48 4234.54,982.56"/>
    </edge>
    <edge id=":11227965155_5" function="internal">
        <lane id=":11227965155_5_0" index="0" disallow="tram rail_urban rail rail_electric rail_fast ship container cable_car subway aircraft wheelchair scooter drone" speed="9.31" length="3.00" shape="4233.31,974.48 4233.05,977.47"/>
    </edge>
    <edge id=":11227965155_8" function="internal">
        <lane id=":11227965155_8_0" index="0" disallow="tram rail_urban rail rail_electric rail_fast ship container cable_car subway aircraft wheelchair scooter drone" speed="9.31" length="13.52" shape="4233.05,977.47 4233.03,977.66 4231.16,980.55 4227.70,983.15 4222.65,985.47"/>
    </edge>
    <edge id=":11227965155_6" function="internal">
        <lane id=":11227965155_6_0" index="0" disallow="tram rail_urban rail rail_electric rail_fast ship container cable_car subway aircraft wheelchair scooter drone" speed="7.37" length="10.04" shape="4221.54,982.47 4224.19,981.14 4225.97,979.46 4226.88,977.43 4226.92,975.03"/>
    </edge>
    <edge id=":11227965155_7" function="internal">
        <lane id=":11227965155_7_0" index="0" disallow="tram rail_urban rail rail_electric rail_fast ship container cable_car subway aircraft wheelchair scooter drone" speed="7.58" length="14.30" shape="4221.54,982.47 4226.91,980.78 4230.86,980.24 4233.40,980.83 4234.54,982.56"/>
    </edge>
    <edge id=":12070943530_0" function="internal">
        <lane id=":12070943530_0_0" index="0" disallow="tram rail_urban rail rail_electric rail_fast ship container cable_car subway aircraft wheelchair scooter drone" speed="13.89" length="14.79" shape="4018.89,1188.58 4010.07,1176.72"/>
    </edge>
    <edge id=":12070943530_1" function="internal">
        <lane id=":12070943530_1_0" index="0" disallow="tram rail_urban rail rail_electric rail_fast ship container cable_car subway aircraft wheelchair scooter drone" speed="9.46" length="3.65" shape="4018.89,1188.58 4017.30,1185.49 4017.28,1185.32"/>
    </edge>
    <edge id=":12070943530_6" function="internal">
        <lane id=":12070943530_6_0" index="0" disallow="tram rail_urban rail rail_electric rail_fast ship container cable_car subway aircraft wheelchair scooter drone" speed="9.46" length="11.33" shape="4017.28,1185.32 4016.93,1182.13 4017.78,1178.51 4019.86,1174.63"/>
    </edge>
    <edge id=":12070943530_2" function="internal">
        <lane id=":12070943530_2_0" index="0" disallow="tram rail_urban rail rail_electric rail_fast ship container cable_car subway aircraft wheelchair scooter drone" speed="8.18" length="11.02" shape="4022.52,1176.42 4020.91,1179.36 4020.19,1182.05 4020.38,1184.49 4021.46,1186.67"/>
    </edge>
    <edge id=":12070943530_3" function="internal">
        <lane id=":12070943530_3_0" index="0" disallow="tram rail_urban rail rail_electric rail_fast ship container cable_car subway aircraft wheelchair scooter drone" speed="7.53" length="15.69" shape="4022.52,1176.42 4019.49,1179.80 4016.40,1180.97 4013.26,1179.95 4010.07,1176.72"/>
    </edge>
    <edge id=":12070943530_4" function="internal">
        <lane id=":12070943530_4_0" index="0" disallow="tram rail_urban rail rail_electric rail_fast ship container cable_car subway aircraft wheelchair scooter drone" speed="5.90" length="9.11" shape="4012.63,1174.81 4014.49,1176.68 4016.31,1177.28 4018.10,1176.59 4019.86,1174.63"/>
    </edge>
    <edge id=":12070943530_5" function="internal">
        <lane id=":12070943530_5_0" index="0" disallow="tram rail_urban rail rail_electric rail_fast ship container cable_car subway aircraft wheelchair scooter drone" speed="13.89" length="14.79" shape="4012.63,1174.81 4021.46,1186.67"/>
    </edge>
    <edge id=":12070943531_0" function="internal">
        <lane id=":12070943531_0_0" index="0" disallow="tram rail_urban rail rail_electric rail_fast ship container cable_car subway aircraft wheelchair scooter drone" speed="5.72" length="9.19" shape="4030.39,1175.25 4028.76,1173.06 4027.07,1172.29 4025.31,1172.92 4023.50,1174.96"/>
    </edge>
    <edge id=":12070943531_1" function="internal">