<additional>
    <poly id="building_0" type="building" color="200,200,200" fill="true" layer="2" shape="2970.89,3351.58 2981.99,3348.41 2985.06,3355.17 2978.65,3365.41 2970.89,3351.58"/>
    <poly id="building_1" type="building" color="200,200,200" fill="true" layer="2" shape="2783.68,3572.35 2795.61,3568.59 2790.30,3551.98 2778.38,3555.74 2783.68,3572.35"/>
    <poly id="building_2" type="building" color="200,200,200" fill="true" layer="2" shape="3027.61,3488.13 3013.41,3464.04 3042.49,3449.40 3054.66,3475.93 3040.97,3481.86 3027.61,3488.13"/>
    <poly id="building_3" type="building" color="200,200,200" fill="true" layer="2" shape="2665.46,2553.35 2686.06,2548.64 2687.71,2561.14 2670.54,2564.74 2669.71,2558.77 2664.65,2556.34 2665.46,2553.35"/>
    <poly id="building_4" type="building" color="200,200,200" fill="true" layer="2" shape="2403.88,3653.65 2401.41,3692.51 2401.29,3716.08 2369.19,3723.68 2372.40,3734.99 2413.62,3723.67 2412.93,3709.38 2414.10,3679.79 2417.01,3654.47 2403.88,3653.65"/>
    <poly id="building_5" type="building" color="200,200,200" fill="true" layer="2" shape="2348.46,3743.55 2317.85,3678.51 2338.12,3669.10 2368.70,3734.16 2348.46,3743.55"/>
    <poly id="education_6" type="education" color="255,255,228" fill="true" layer="-1" shape="2362.91,3718.89 2392.22,3712.77 2393.07,3693.72 2389.54,3693.95 2389.34,3683.17 2394.64,3683.19 2394.76,3659.12 2378.86,3659.28 2379.39,3654.77 2383.94,3653.80 2385.24,3645.78 2377.47,3635.20 2368.87,3639.67 2374.12,3648.48 2358.93,3656.68 2354.61,3661.92 2360.09,3677.00 2349.71,3683.71 2362.91,3718.89"/>
    <poly id="building_7" type="building" color="200,200,200" fill="true" layer="2" shape="4129.13,2606.26 4123.99,2575.10 4138.52,2572.66 4144.81,2603.14 4129.13,2606.26"/>
    <poly id="building_8" type="building" color="200,200,200" fill="true" layer="2" shape="4128.87,2610.61 4156.77,2606.41 4157.64,2618.55 4130.65,2622.75 4128.87,2610.61"/>
    <poly id="building_9" type="building" color="200,200,200" fill="true" layer="2" shape="2929.51,3380.83 2956.37,3362.87 2959.80,3367.94 2967.65,3362.69 2958.62,3349.35 2923.90,3372.55 2929.51,3380.83"/>
    <poly id="building_10" type="building" color="200,200,200" fill="true" layer="2" shape="2913.67,3359.52 2940.72,3342.04 2936.38,3334.46 2909.55,3353.09 2913.67,3359.52"/>
    <poly id="building_11" type="building" color="200,200,200" fill="true" layer="2" shape="2946.21,3349.62 2955.68,3344.64 2940.13,3322.35 2932.50,3327.12 2946.21,3349.62"/>
    <poly id="building_12" type="building" color="200,200,200" fill="true" layer="2" shape="3895.46,2588.01 3917.03,2584.25 3910.59,2514.37 3885.95,2516.02 3879.12,2542.21 3877.95,2546.68 3879.34,2581.17 3895.46,2588.01"/>
    <poly id="building_13" type="building" color="200,200,200" fill="true" layer="2" shape="3769.03,3045.29 3780.29,3052.12 3788.29,3050.23 3788.52,3043.85 3775.90,3035.45 3771.05,3031.35 3766.51,3042.18 3769.03,3045.29"/>
    <poly id="building_14" type="building" color="200,200,200" fill="true" layer="2" shape="3750.15,2583.55 3741.62,2585.06 3739.82,2588.39 3744.27,2592.64 3752.36,2588.68 3755.27,2586.69 3750.15,2583.55"/>
    <poly id="building_15" type="building" color="200,200,200" fill="true" layer="2" shape="3676.74,2574.48 3661.04,2579.75 3646.01,2585.45 3632.32,2591.39 3631.46,2584.48 3620.00,2591.32 3614.01,2583.50 3609.68,2595.49 3611.65,2605.07 3614.50,2617.31 3619.39,2614.66 3621.01,2613.80 3622.10,2620.47 3638.01,2617.67 3643.84,2613.24 3661.11,2610.00 3691.16,2601.93 3686.07,2590.08 3684.08,2585.43 3676.74,2574.48"/>
    <poly id="water_16" type="water" color="170,211,223" fill="true" layer="0" shape="2386.49,3294.07 2370.68,3268.44 2378.06,3233.21 2398.64,3232.30 2408.24,3266.59 2398.33,3293.11 2386.49,3294.07"/>
    <poly id="water_17" type="water" color="170,211,223" fill="true" layer="0" shape="3518.90,3588.36 3536.12,3538.19 3554.07,3543.43 3538.39,3594.35 3518.90,3588.36"/>
    <poly id="water_18" type="water" color="170,211,223" fill="true" layer="0" shape="2556.82,4101.58 2571.52,4115.17 2582.80,4104.66 2565.17,4086.96 2556.82,4101.58"/>
    <poly id="water_19" type="water" color="170,211,223" fill="true" layer="0" shape="4022.04,3765.18 4003.81,3749.23 4040.07,3709.51 4041.18,3723.59 4059.39,3742.47 4040.92,3771.74 4022.04,3765.18"/>
    <poly id="building_20" type="building" color="200,200,200" fill="true" layer="2" shape="4151.77,2439.22 4153.01,2428.06 4167.77,2430.78 4165.35,2441.92 4151.77,2439.22"/>
    <poly id="building_21" type="building" color="200,200,200" fill="true" layer="2" shape="4115.75,2434.62 4123.42,2436.42 4124.67,2422.92 4115.52,2421.70 4115.75,2434.62"/>
    <poly id="building_22" type="building" color="200,200,200" fill="true" layer="2" shape="4157.76,2480.33 4166.32,2480.68 4168.44,2472.17 4169.66,2464.54 4161.40,2462.45 4161.06,2470.09 4157.76,2480.33"/>
    <poly id="building_23" type="building" color="200,200,200" fill="true" layer="2" shape="4147.70,2516.66 4145.16,2507.96 4157.26,2508.28 4157.47,2515.43 4147.70,2516.66"/>
    <poly id="building_24" type="building" color="200,200,200" fill="true" layer="2" shape="4021.73,2553.05 4034.85,2550.57 4032.85,2541.10 4032.37,2533.94 4025.43,2533.90 4025.65,2539.53 4019.46,2541.79 4020.73,2546.91 4021.73,2553.05"/>
    <poly id="building_25" type="building" color="200,200,200" fill="true" layer="2" shape="4022.46,2502.78 4030.26,2502.23 4034.74,2502.26 4034.00,2494.70 4029.71,2494.49 4021.53,2494.24 4022.46,2502.78"/>
    <poly id="building_26" type="building" color="200,200,200" fill="true" layer="2" shape="3972.66,2444.03 3982.22,2445.63 3983.01,2440.99 3981.09,2436.52 3972.71,2436.09 3972.66,2444.03"/>
    <poly id="building_27" type="building" color="200,200,200" fill="true" layer="2" shape="3966.71,2465.30 3964.17,2464.90 3963.57,2468.96 3975.46,2470.18 3977.07,2459.35 3966.94,2457.94 3966.71,2465.30"/>
    <poly id="building_28" type="building" color="200,200,200" fill="true" layer="2" shape="3962.74,2479.41 3962.96,2474.38 3975.03,2475.99 3974.42,2480.25 3962.74,2479.41"/>
    <poly id="building_29" type="building" color="200,200,200" fill="true" layer="2" shape="3864.91,2659.97 3858.91,2651.03 3861.65,2649.50 3865.05,2646.76 3868.11,2644.30 3869.84,2647.79 3868.66,2650.69 3872.93,2654.59 3864.91,2659.97"/>
    <poly id="building_30" type="building" color="200,200,200" fill="true" layer="2" shape="3928.20,2634.93 3925.13,2625.81 3937.81,2622.97 3938.74,2633.05 3928.20,2634.93"/>
    <poly id="building_31" type="building" color="200,200,200" fill="true" layer="2" shape="3920.13,2612.04 3925.21,2610.51 3923.10,2603.33 3917.25,2605.05 3920.13,2612.04"/>
    <poly id="building_32" type="building" color="200,200,200" fill="true" layer="2" shape="3956.16,2619.58 3962.98,2617.88 3957.81,2601.19 3950.59,2603.68 3956.16,2619.58"/>
    <poly id="building_33" type="building" color="200,200,200" fill="true" layer="2" shape="3962.83,2610.14 3960.15,2601.40 3975.56,2599.55 3976.69,2606.52 3962.83,2610.14"/>
    <poly id="building_34" type="building" color="200,200,200" fill="true" layer="2" shape="3883.94,2636.44 3879.69,2629.65 3887.30,2628.14 3889.60,2634.92 3883.94,2636.44"/>
    <poly id="building_35" type="building" color="200,200,200" fill="true" layer="2" shape="3870.60,2725.45 3874.89,2727.99 3878.41,2723.56 3875.51,2721.22 3870.60,2725.45"/>
    <poly id="building_36" type="building" color="200,200,200" fill="true" layer="2" shape="3882.70,2723.97 3879.03,2717.94 3886.66,2710.81 3890.14,2718.20 3882.70,2723.97"/>
    <poly id="building_37" type="building" color="200,200,200" fill="true" layer="2" shape="3888.20,2679.45 3893.10,2675.60 3906.24,2696.78 3900.37,2699.86 3888.20,2679.45"/>
    <poly id="building_38" type="building" color="200,200,200" fill="true" layer="2" shape="3689.01,2674.14 3687.48,2666.59 3704.46,2664.16 3705.59,2670.95 3689.01,2674.14"/>
    <poly id="building_39" type="building" color="200,200,200" fill="true" layer="2" shape="3683.09,2760.88 3695.96,2759.20 3692.89,2750.85 3681.78,2752.34 3683.09,2760.88"/>
    <poly id="building_40" type="building" color="200,200,200" fill="true" layer="2" shape="3689.81,2786.62 3686.87,2777.42 3696.52,2774.38 3699.47,2783.57 3689.81,2786.62"/>
    <poly id="building_41" type="building" color="200,200,200" fill="true" layer="2" shape="3633.10,2854.15 3629.82,2847.35 3640.16,2844.69 3643.24,2853.04 3633.10,2854.15"/>
    <poly id="building_42" type="building" color="200,200,200" fill="true" layer="2" shape="3575.79,2881.63 3571.58,2871.48 3557.99,2877.04 3562.20,2887.19 3575.79,2881.63"/>
    <poly id="building_43" type="building" color="200,200,200" fill="true" layer="2" shape="3578.55,2959.01 3586.17,2955.57 3580.99,2939.28 3577.47,2941.38 3578.43,2943.71 3575.30,2946.79 3578.55,2959.01"/>
    <poly id="building_44" type="building" color="200,200,200" fill="true" layer="2" shape="3502.88,3040.53 3499.76,3040.90 3498.40,3039.15 3493.13,3040.09 3489.69,3028.45 3501.20,3025.22 3502.53,3032.20 3496.68,3032.94 3497.25,3035.86 3501.14,3037.23 3502.88,3040.53"/>
    <poly id="building_45" type="building" color="200,200,200" fill="true" layer="2" shape="3509.94,3031.85 3507.43,3026.81 3507.69,3021.22 3516.24,3021.62 3518.08,3030.10 3509.94,3031.85"/>
    <poly id="building_46" type="building" color="200,200,200" fill="true" layer="2" shape="3348.96,2990.14 3347.02,2987.62 3349.29,2984.28 3345.88,2982.00 3343.56,2972.78 3352.87,2970.46 3357.31,2988.06 3348.96,2990.14"/>
    <poly id="building_47" type="building" color="200,200,200" fill="true" layer="2" shape="3291.55,2983.81 3290.74,2978.54 3315.03,2974.85 3315.84,2980.14 3291.55,2983.81"/>
    <poly id="building_48" type="building" color="200,200,200" fill="true" layer="2" shape="3259.76,3003.13 3258.16,2986.99 3262.23,2986.59 3262.81,2988.14 3266.02,2987.83 3267.46,3002.38 3259.76,3003.13"/>
    <poly id="building_49" type="building" color="200,200,200" fill="true" layer="2" shape="3265.29,3028.26 3264.95,3025.34 3262.23,3024.36 3260.62,3010.94 3267.42,3010.14 3269.54,3027.75 3265.29,3028.26"/>
    <poly id="building_50" type="building" color="200,200,200" fill="true" layer="2" shape="3346.47,3049.43 3345.21,3045.58 3340.83,3046.84 3340.08,3043.00 3350.89,3039.74 3352.91,3047.16 3346.47,3049.43"/>
    <poly id="building_51" type="building" color="200,200,200" fill="true" layer="2" shape="3370.03,3070.50 3365.20,3058.46 3378.83,3056.74 3381.11,3065.70 3370.03,3070.50"/>
    <poly id="building_52" type="building" color="200,200,200" fill="true" layer="2" shape="3359.96,3076.83 3361.23,3080.93 3366.89,3078.66 3361.56,3065.09 3353.32,3068.11 3354.59,3072.20 3357.16,3070.94 3359.96,3076.83"/>
    <poly id="building_53" type="building" color="200,200,200" fill="true" layer="2" shape="3293.44,3056.55 3299.40,3049.43 3295.61,3036.89 3291.24,3036.36 3290.31,3032.27 3288.07,3032.77 3293.44,3056.55"/>
    <poly id="building_54" type="building" color="200,200,200" fill="true" layer="2" shape="3219.91,3050.07 3225.52,3048.24 3227.48,3054.15 3221.86,3055.97 3219.91,3050.07"/>
    <poly id="building_55" type="building" color="200,200,200" fill="true" layer="2" shape="3229.36,3051.10 3228.87,3046.25 3238.16,3041.45 3238.64,3047.58 3229.36,3051.10"/>
    <poly id="building_56" type="building" color="200,200,200" fill="true" layer="2" shape="3251.77,3045.35 3250.27,3037.16 3257.73,3036.69 3260.26,3044.37 3251.77,3045.35"/>
    <poly id="building_57" type="building" color="200,200,200" fill="true" layer="2" shape="3327.25,3035.86 3333.99,3035.07 3332.94,3026.29 3326.20,3027.08 3327.25,3035.86"/>
    <poly id="building_58" type="building" color="200,200,200" fill="true" layer="2" shape="3191.19,3069.43 3187.94,3061.62 3195.98,3058.32 3199.24,3066.13 3191.19,3069.43"/>
    <poly id="building_59" type="building" color="200,200,200" fill="true" layer="2" shape="3144.84,3135.38 3153.34,3131.67 3147.63,3118.74 3139.14,3122.46 3144.84,3135.38"/>
    <poly id="building_60" type="building" color="200,200,200" fill="true" layer="2" shape="3170.18,3185.12 3180.73,3180.12 3190.42,3176.97 3191.91,3182.72 3181.70,3187.37 3174.05,3191.55 3172.78,3189.45 3170.18,3185.12"/>
    <poly id="building_61" type="building" color="200,200,200" fill="true" layer="2" shape="3172.73,3215.82 3176.26,3223.26 3169.28,3227.60 3166.61,3219.16 3172.73,3215.82"/>
    <poly id="building_62" type="building" color="200,200,200" fill="true" layer="2" shape="3111.25,3224.94 3114.94,3232.88 3129.07,3225.03 3125.71,3218.44 3111.25,3224.94"/>
    <poly id="building_63" type="building" color="200,200,200" fill="true" layer="2" shape="3101.45,3250.18 3099.44,3244.60 3115.08,3239.63 3116.58,3244.02 3101.45,3250.18"/>
    <poly id="building_64" type="building" color="200,200,200" fill="true" layer="2" shape="3103.42,3263.51 3109.71,3260.84 3116.09,3274.52 3110.12,3278.89 3106.09,3272.79 3108.14,3270.78 3106.12,3266.89 3103.42,3263.51"/>
    <poly id="building_65" type="building" color="200,200,200" fill="true" layer="2" shape="3007.02,3296.54 3005.35,3291.82 3015.89,3289.18 3017.39,3293.40 3007.02,3296.54"/>
    <poly id="building_66" type="building" color="200,200,200" fill="true" layer="2" shape="3002.70,3311.70 2999.14,3312.52 3002.50,3319.78 3012.54,3314.78 3007.67,3303.42 3003.64,3294.00 2996.32,3299.86 3002.70,3311.70"/>
    <poly id="building_67" type="building" color="200,200,200" fill="true" layer="2" shape="2898.41,3371.23 2887.44,3374.72 2875.57,3337.80 2886.53,3334.32 2898.41,3371.23"/>
    <poly id="building_68" type="building" color="200,200,200" fill="true" layer="2" shape="2899.89,3436.59 2890.17,3447.49 2885.97,3438.70 2881.62,3428.39 2879.27,3422.32 2885.22,3420.66 2886.88,3426.74 2892.15,3426.77 2899.89,3436.59"/>
    <poly id="building_69" type="building" color="200,200,200" fill="true" layer="2" shape="2984.98,3423.71 2987.66,3430.81 3009.26,3420.97 3001.32,3413.68 2984.98,3423.71"/>
    <poly id="building_70" type="building" color="200,200,200" fill="true" layer="2" shape="2969.48,3433.74 2962.75,3422.58 2967.35,3420.25 2969.88,3422.62 2975.66,3420.46 2981.57,3426.56 2979.35,3429.25 2974.63,3424.33 2969.86,3427.51 2972.21,3431.91 2969.48,3433.74"/>
    <poly id="building_71" type="building" color="200,200,200" fill="true" layer="2" shape="3144.78,3336.90 3140.91,3339.69 3142.68,3344.56 3147.84,3341.52 3148.58,3346.38 3152.71,3344.86 3150.42,3341.01 3144.78,3336.90"/>
    <poly id="building_72" type="building" color="200,200,200" fill="true" layer="2" shape="3155.01,3300.16 3158.55,3308.86 3166.29,3304.82 3163.26,3295.09 3161.96,3288.47 3161.76,3287.42 3158.40,3289.19 3159.90,3297.12 3155.01,3300.16"/>
    <poly id="building_73" type="building" color="200,200,200" fill="true" layer="2" shape="3271.57,3190.38 3278.48,3198.86 3280.55,3196.31 3285.16,3200.16 3294.72,3192.04 3281.40,3182.00 3271.57,3190.38"/>
    <poly id="building_74" type="building" color="200,200,200" fill="true" layer="2" shape="3254.78,3205.37 3261.41,3215.88 3268.38,3211.31 3260.71,3203.35 3254.78,3205.37"/>
    <poly id="building_75" type="building" color="200,200,200" fill="true" layer="2" shape="3280.33,3434.71 3290.12,3430.93 3285.82,3416.34 3275.48,3425.49 3280.33,3434.71"/>
    <poly id="building_76" type="building" color="200,200,200" fill="true" layer="2" shape="3242.53,3444.64 3249.71,3451.26 3258.53,3439.69 3250.77,3434.03 3242.53,3444.64"/>
    <poly id="building_77" type="building" color="200,200,200" fill="true" layer="2" shape="3214.91,3432.88 3225.19,3441.84 3228.91,3438.38 3218.44,3428.64 3214.91,3432.88"/>
    <poly id="building_78" type="building" color="200,200,200" fill="true" layer="2" shape="3192.59,3450.96 3200.55,3458.56 3204.66,3454.71 3197.09,3449.05 3192.59,3450.96"/>
    <poly id="building_79" type="building" color="200,200,200" fill="true" layer="2" shape="3223.36,3419.75 3224.93,3418.21 3232.11,3424.25 3234.84,3422.13 3238.92,3426.81 3235.77,3431.83 3223.36,3419.75"/>
    <poly id="building_80" type="building" color="200,200,200" fill="true" layer="2" shape="3206.80,3367.81 3204.28,3368.83 3206.77,3372.66 3212.25,3370.77 3205.66,3360.47 3204.31,3363.11 3206.80,3367.81"/>
    <poly id="building_81" type="building" color="200,200,200" fill="true" layer="2" shape="3185.13,3359.62 3190.25,3368.31 3200.34,3360.73 3195.06,3352.93 3185.13,3359.62"/>
    <poly id="building_82" type="building" color="200,200,200" fill="true" layer="2" shape="3191.22,3353.64 3197.45,3348.84 3192.47,3339.12 3186.25,3343.35 3189.61,3348.94 3188.57,3350.25 3191.22,3353.64"/>
    <poly id="building_83" type="building" color="200,200,200" fill="true" layer="2" shape="3172.82,3369.98 3177.41,3365.17 3182.27,3369.00 3185.81,3371.52 3178.68,3378.09 3175.59,3374.25 3172.82,3369.98"/>
    <poly id="building_84" type="building" color="200,200,200" fill="true" layer="2" shape="3151.41,3366.79 3150.27,3359.44 3161.06,3357.01 3163.83,3364.80 3151.41,3366.79"/>
    <poly id="building_85" type="building" color="200,200,200" fill="true" layer="2" shape="3171.14,3351.33 3167.63,3343.98 3176.06,3341.24 3177.96,3347.26 3171.14,3351.33"/>
    <poly id="building_86" type="building" color="200,200,200" fill="true" layer="2" shape="3228.99,3332.12 3224.93,3320.06 3232.31,3318.49 3235.98,3326.14 3232.72,3327.59 3233.29,3330.24 3228.99,3332.12"/>
    <poly id="building_87" type="building" color="200,200,200" fill="true" layer="2" shape="3286.69,3282.38 3278.33,3257.04 3299.46,3250.64 3302.40,3252.82 3304.60,3250.02 3307.16,3251.06 3306.92,3249.01 3311.69,3247.76 3312.70,3249.81 3318.24,3248.18 3321.41,3257.65 3321.51,3263.01 3317.13,3264.39 3315.31,3266.94 3312.11,3266.29 3311.07,3267.56 3307.84,3269.08 3307.34,3267.15 3304.62,3269.06 3301.40,3270.06 3301.14,3272.62 3301.49,3277.73 3302.25,3280.68 3304.69,3281.20 3309.98,3279.94 3311.12,3282.13 3317.43,3281.01 3326.31,3277.99 3329.37,3285.66 3330.78,3285.16 3331.78,3289.64 3332.40,3295.14 3319.51,3300.82 3317.72,3299.53 3316.56,3299.78 3315.16,3295.81 3313.11,3296.58 3314.35,3303.10 3301.99,3306.99 3296.19,3308.11 3290.23,3291.98 3286.69,3282.38"/>
    <poly id="building_88" type="building" color="200,200,200" fill="true" layer="2" shape="3195.66,3319.79 3200.25,3329.02 3209.80,3322.42 3208.41,3316.40 3195.66,3319.79"/>
    <poly id="building_89" type="building" color="200,200,200" fill="true" layer="2" shape="3208.40,3443.40 3206.33,3445.05 3203.13,3442.36 3208.03,3438.93 3213.92,3444.19 3211.21,3446.48 3208.40,3443.40"/>
    <poly id="building_90" type="building" color="200,200,200" fill="true" layer="2" shape="3256.62,3419.00 3252.02,3413.10 3257.06,3407.76 3259.86,3413.65 3256.62,3419.00"/>
    <poly id="building_91" type="building" color="200,200,200" fill="true" layer="2" shape="2870.43,3737.76 2870.49,3726.90 2879.94,3725.78 2879.87,3738.99 2870.43,3737.76"/>
    <poly id="building_92" type="building" color="200,200,200" fill="true" layer="2" shape="2963.88,3835.70 2964.22,3824.54 2976.05,3821.67 2979.56,3829.32 2977.47,3832.54 2963.88,3835.70"/>
    <poly id="building_93" type="building" color="200,200,200" fill="true" layer="2" shape="2964.55,3874.73 2963.13,3863.87 2974.66,3862.46 2976.08,3873.62 2964.55,3874.73"/>
    <poly id="building_94" type="building" color="200,200,200" fill="true" layer="2" shape="2840.18,3929.56 2850.82,3927.86 2850.55,3923.45 2839.94,3919.00 2840.18,3929.56"/>
    <poly id="building_95" type="building" color="200,200,200" fill="true" layer="2" shape="2887.90,4022.90 2893.96,4021.96 2893.00,4017.70 2898.65,4017.34 2897.73,4008.62 2889.55,4007.61 2886.43,4005.46 2880.39,4006.40 2881.32,4013.38 2884.64,4013.59 2884.23,4017.85 2887.93,4017.48 2887.90,4022.90"/>
    <poly id="building_96" type="building" color="200,200,200" fill="true" layer="2" shape="2864.47,4067.89 2876.75,4068.93 2879.10,4065.46 2879.33,4058.68 2867.64,4058.04 2864.47,4067.89"/>
    <poly id="building_97" type="building" color="200,200,200" fill="true" layer="2" shape="2909.76,4055.55 2912.13,4049.17 2913.53,4042.59 2923.45,4046.52 2921.47,4051.54 2919.31,4056.95 2909.76,4055.55"/>
    <poly id="building_98" type="building" color="200,200,200" fill="true" layer="2" shape="2835.00,4150.82 2834.08,4140.16 2839.54,4140.96 2845.96,4141.00 2846.10,4150.88 2839.48,4151.03 2835.00,4150.82"/>
    <poly id="building_99" type="building" color="200,200,200" fill="true" layer="2" shape="2805.30,4164.21 2802.40,4158.59 2805.15,4154.73 2809.63,4154.94 2810.20,4158.04 2815.07,4160.20 2814.06,4166.19 2805.30,4164.21"/>
    <poly id="building_100" type="building" color="200,200,200" fill="true" layer="2" shape="2836.92,4191.88 2840.85,4186.87 2844.38,4183.20 2849.99,4191.56 2850.75,4194.66 2844.89,4198.32 2841.58,4196.94 2841.20,4193.84 2841.21,4190.74 2836.92,4191.88"/>
    <poly id="building_101" type="building" color="200,200,200" fill="true" layer="2" shape="2854.95,4211.33 2860.77,4218.15 2867.60,4214.31 2858.10,4205.54 2854.95,4211.33"/>
    <poly id="building_102" type="building" color="200,200,200" fill="true" layer="2" shape="2886.13,4287.79 2876.19,4286.19 2879.36,4277.11 2887.35,4278.12 2887.32,4283.93 2890.63,4284.33 2889.62,4291.50 2885.72,4291.09 2886.13,4287.79"/>
    <poly id="building_103" type="building" color="200,200,200" fill="true" layer="2" shape="2843.30,4239.75 2853.46,4235.73 2854.80,4240.00 2845.60,4246.34 2843.30,4239.75"/>
    <poly id="building_104" type="building" color="200,200,200" fill="true" layer="2" shape="3287.47,4176.62 3283.62,4167.49 3299.05,4162.35 3297.23,4173.76 3292.55,4175.10 3287.47,4176.62"/>
    <poly id="building_105" type="building" color="200,200,200" fill="true" layer="2" shape="3227.66,4209.61 3224.37,4203.40 3231.78,4202.08 3236.62,4209.07 3227.66,4209.61"/>
    <poly id="building_106" type="building" color="200,200,200" fill="true" layer="2" shape="3264.08,4222.49 3268.34,4223.14 3269.57,4228.64 3264.31,4228.32 3264.08,4222.49"/>
    <poly id="building_107" type="building" color="200,200,200" fill="true" layer="2" shape="2573.25,3730.00 2570.46,3716.65 2588.40,3709.06 2604.71,3705.90 2605.87,3716.42 2590.78,3722.82 2573.25,3730.00"/>
    <poly id="building_108" type="building" color="200,200,200" fill="true" layer="2" shape="2540.40,3674.66 2540.47,3661.21 2553.05,3661.03 2557.88,3664.90 2560.04,3666.83 2560.24,3674.52 2551.06,3674.48 2540.40,3674.66"/>
    <poly id="education_109" type="education" color="255,255,228" fill="true" layer="-1" shape="2412.29,3648.36 2401.67,3644.59 2396.81,3639.42 2396.29,3626.56 2394.34,3615.40 2392.37,3606.53 2393.56,3598.54 2406.49,3602.60 2417.69,3604.95 2432.63,3608.46 2447.59,3611.96 2467.99,3616.07 2488.38,3621.04 2505.91,3626.27 2522.30,3626.36 2521.64,3644.65 2520.13,3658.07 2512.62,3661.75 2509.17,3663.16 2509.68,3675.45 2511.04,3691.47 2510.11,3705.18 2488.20,3711.35 2459.44,3711.20 2442.13,3719.41 2429.44,3723.91 2423.78,3708.16 2423.29,3691.01 2423.94,3676.15 2424.06,3653.28 2412.29,3648.36"/>
    <poly id="building_110" type="building" color="200,200,200" fill="true" layer="2" shape="2436.89,3675.65 2448.98,3674.85 2448.50,3656.84 2451.14,3646.56 2466.97,3646.37 2470.93,3657.53 2483.59,3657.88 2487.87,3664.48 2502.84,3662.84 2502.94,3643.69 2502.11,3636.83 2483.71,3633.88 2460.44,3629.75 2436.28,3627.91 2436.71,3654.21 2436.89,3675.65"/>
    <poly id="commercial_111" type="commercial" color="242,218,218" fill="true" layer="-1" shape="2710.20,3586.56 2709.41,3598.57 2709.12,3608.43 2728.23,3607.81 2732.13,3604.47 2730.48,3594.60 2729.31,3586.42 2728.61,3581.13 2718.68,3583.72 2710.20,3586.56"/>
    <poly id="education_112" type="education" color="255,255,228" fill="true" layer="-1" shape="2932.91,3391.68 2925.33,3398.61 2914.77,3387.41 2919.47,3383.99 2925.59,3379.47 2928.26,3384.02 2945.37,3374.13 2951.54,3370.58 2959.49,3377.84 2932.91,3391.68"/>
    <poly id="building_113" type="building" color="200,200,200" fill="true" layer="2" shape="2529.08,3564.23 2528.64,3556.78 2528.42,3551.73 2537.13,3551.30 2538.06,3558.51 2538.51,3565.00 2529.08,3564.23"/>
    <poly id="building_114" type="building" color="200,200,200" fill="true" layer="2" shape="2537.99,3723.64 2538.01,3719.35 2538.03,3715.64 2549.54,3714.27 2562.22,3711.47 2563.89,3720.05 2552.96,3722.00 2546.04,3722.83 2537.99,3723.64"/>
    <poly id="building_115" type="building" color="200,200,200" fill="true" layer="2" shape="2355.66,3636.06 2367.31,3630.03 2358.72,3613.67 2347.07,3619.70 2355.66,3636.06"/>
    <poly id="building_116" type="building" color="200,200,200" fill="true" layer="2" shape="2510.93,3566.30 2510.50,3551.63 2525.19,3551.19 2525.62,3565.88 2510.93,3566.30"/>
    <poly id="building_117" type="building" color="200,200,200" fill="true" layer="2" shape="2495.96,3565.09 2496.02,3553.38 2508.67,3553.15 2508.89,3566.58 2495.96,3565.09"/>
    <poly id="building_118" type="building" color="200,200,200" fill="true" layer="2" shape="2573.56,3577.21 2574.79,3560.36 2583.72,3559.84 2583.05,3577.55 2573.56,3577.21"/>
    <poly id="building_119" type="building" color="200,200,200" fill="true" layer="2" shape="2650.96,3552.79 2652.17,3561.34 2661.95,3561.10 2676.05,3561.17 2675.81,3553.24 2662.98,3552.85 2650.96,3552.79"/>
    <poly id="building_120" type="building" color="200,200,200" fill="true" layer="2" shape="2761.12,3577.05 2758.90,3567.89 2755.60,3554.22 2772.45,3550.20 2775.58,3563.12 2778.67,3579.06 2763.68,3581.92 2761.12,3577.05"/>
    <poly id="residential_121" type="residential" color="220,220,220" fill="true" layer="-1" shape="2542.49,3698.86 2539.65,3691.41 2540.55,3683.70 2559.57,3679.51 2561.53,3686.95 2562.92,3696.67 2552.27,3698.33 2542.49,3698.86"/>
    <poly id="building_122" type="building" color="200,200,200" fill="true" layer="2" shape="2520.88,3671.78 2522.67,3657.21 2534.18,3657.27 2537.60,3663.30 2537.29,3667.01 2532.40,3667.55 2531.80,3672.69 2520.88,3671.78"/>
    <poly id="building_123" type="building" color="200,200,200" fill="true" layer="2" shape="2854.18,3525.08 2859.27,3518.20 2863.83,3521.54 2858.74,3528.41 2854.18,3525.08"/>
    <poly id="building_124" type="building" color="200,200,200" fill="true" layer="2" shape="3761.22,2757.66 3770.49,2743.18 3782.58,2749.47 3793.81,2758.25 3796.25,2770.30 3786.20,2775.22 3773.29,2766.86 3761.22,2757.66"/>
    <poly id="commercial_125" type="commercial" color="242,218,218" fill="true" layer="-1" shape="3014.00,3367.41 3022.88,3363.36 3037.40,3356.09 3047.47,3351.45 3052.20,3350.30 3056.27,3362.65 3063.90,3373.25 3069.43,3388.54 3074.09,3402.07 3079.96,3410.32 3081.68,3419.72 3084.20,3427.16 3085.47,3430.90 3095.76,3438.29 3103.09,3450.06 3105.70,3457.71 3113.64,3467.14 3114.19,3472.72 3107.38,3476.80 3096.72,3481.15 3084.29,3485.49 3071.57,3488.35 3066.55,3488.32 3059.54,3472.44 3052.80,3460.66 3045.48,3449.68 3043.36,3434.76 3035.01,3416.54 3026.52,3402.12 3023.02,3393.29 3018.93,3385.94 3017.20,3377.71 3014.00,3367.41"/>
    <poly id="commercial_126" type="commercial" color="242,218,218" fill="true" layer="-1" shape="2892.32,3470.69 2897.98,3462.20 2909.28,3448.46 2917.31,3438.82 2927.10,3430.07 2953.14,3413.19 2962.72,3400.31 2977.54,3389.82 2992.95,3380.21 3004.22,3372.94 3009.48,3383.24 2989.62,3394.59 2968.87,3410.03 2955.51,3422.29 2945.43,3429.28 2934.75,3436.86 2927.33,3444.45 2920.50,3449.69 2913.05,3461.69 2907.98,3469.30 2900.85,3478.94 2892.32,3470.69"/>
    <poly id="commercial_127" type="commercial" color="242,218,218" fill="true" layer="-1" shape="2848.16,3497.46 2864.47,3484.62 2867.78,3475.25 2879.68,3458.87 2859.28,3461.71 2843.60,3465.14 2825.54,3472.10 2817.84,3477.63 2805.09,3485.20 2800.02,3493.09 2791.16,3494.80 2796.12,3505.99 2801.69,3513.94 2809.33,3522.20 2821.17,3516.39 2833.03,3509.40 2842.22,3503.29 2848.16,3497.46"/>
    <poly id="building_128" type="building" color="200,200,200" fill="true" layer="2" shape="2297.06,3626.95 2295.07,3612.56 2309.84,3611.47 2315.74,3615.30 2324.61,3612.72 2329.83,3631.53 2317.40,3634.39 2314.80,3624.10 2297.06,3626.95"/>
    <poly id="residential_129" type="residential" color="220,220,220" fill="true" layer="-1" shape="2467.54,3585.83 2469.32,3563.42 2483.95,3563.50 2484.84,3553.54 2489.85,3553.16 2489.36,3566.44 2490.97,3579.31 2489.25,3588.43 2490.03,3597.98 2490.42,3603.80 2495.44,3603.00 2495.37,3615.44 2485.35,3615.81 2478.67,3613.70 2480.41,3602.50 2484.16,3602.11 2484.22,3592.14 2482.99,3585.50 2467.54,3585.83"/>
    <poly id="commercial_130" type="commercial" color="242,218,218" fill="true" layer="-1" shape="2922.68,3288.66 2920.95,3279.55 2918.04,3271.02 2913.94,3264.55 2911.32,3257.49 2910.18,3248.97 2907.58,3237.80 2905.56,3229.28 2913.07,3225.23 2910.84,3218.57 2925.66,3211.25 2930.14,3218.84 2933.64,3227.37 2939.18,3239.44 2943.57,3248.85 2947.95,3257.68 2952.34,3265.63 2955.25,3273.57 2956.42,3277.10 2951.68,3279.42 2944.28,3281.44 2938.37,3283.16 2928.89,3286.34 2922.68,3288.66"/>
    <poly id="building_131" type="building" color="200,200,200" fill="true" layer="2" shape="2922.66,3292.47 2929.46,3290.75 2937.16,3287.56 2943.67,3284.08 2958.18,3280.92 2960.22,3284.45 2960.78,3290.33 2956.34,3293.53 2947.44,3298.48 2943.00,3300.51 2936.79,3302.53 2932.05,3303.09 2924.36,3305.99 2924.10,3298.36 2922.66,3292.47"/>
    <poly id="commercial_132" type="commercial" color="242,218,218" fill="true" layer="-1" shape="2943.19,3321.64 2941.16,3313.41 2941.20,3306.95 2948.89,3303.47 2956.89,3300.00 2965.77,3295.93 2969.28,3302.99 2969.26,3308.27 2973.67,3311.82 2976.01,3317.11 2977.17,3320.65 2979.81,3325.94 2982.42,3332.71 2982.71,3335.64 2985.34,3339.18 2987.39,3343.30 2983.84,3344.74 2978.51,3346.77 2976.17,3342.36 2973.84,3336.48 2970.03,3328.53 2967.39,3327.06 2963.88,3319.69 2961.54,3315.86 2950.88,3319.62 2943.19,3321.64"/>