<?xml version="1.0" encoding="UTF-8"?>

<!-- generated on 2026-03-17T23:01:07.771207+05:30 by Eclipse SUMO netconvert 1.25.0
<netconvertConfiguration xmlns:xsi="http://www.w3.org/2001/XMLSchema-instance" xsi:noNamespaceSchemaLocation="http://sumo.dlr.de/xsd/netconvertConfiguration.xsd">

    <input>
        <osm-files value="map.osm"/>
    </input>

    <output>
        <output-file value="area.net.xml"/>
    </output>

    <projection>
        <proj.utm value="true"/>
    </projection>

    <processing>
        <geometry.remove value="true"/>
        <roundabouts.guess value="true"/>
    </processing>

    <ramp_guessing>
        <ramps.guess value="true"/>
    </ramp_guessing>

    <junctions>
        <no-turnarounds value="true"/>
    </junctions>

</netconvertConfiguration>
-->

<net version="1.20" junctionCornerDetail="5" limitTurnSpeed="5.50" xmlns:xsi="http://www.w3.org/2001/XMLSchema-instance" xsi:noNamespaceSchemaLocation="http://sumo.dlr.de/xsd/net_file.xsd">

    <location netOffset="-718481.25,-934165.35" convBoundary="0.00,0.00,3042.33,2483.70" origBoundary="76.984512,8.446008,77.012073,8.468415" projParameter="+proj=utm +zone=43 +ellps=WGS84 +datum=WGS84 +units=m +no_defs"/>

    <type id="highway.footway" priority="1" numLanes="1" speed="2.78" allow="pedestrian" oneway="1" width="2.00"/>
    <type id="highway.living_street" priority="2" numLanes="1" speed="2.78" disallow="tram rail_urban rail rail_electric rail_fast ship container cable_car subway aircraft wheelchair scooter drone" oneway="0"/>
    <type id="highway.path" priority="1" numLanes="1" speed="5.56" allow="pedestrian bicycle" oneway="0" width="2.00"/>
    <type id="highway.primary" priority="12" numLanes="2" speed="27.78" disallow="tram rail_urban rail rail_electric rail_fast ship container cable_car subway aircraft wheelchair scooter drone" oneway="0"/>
    <type id="highway.primary_link" priority="7" numLanes="1" speed="22.22" disallow="tram rail_urban rail rail_electric rail_fast ship container cable_car subway aircraft wheelchair scooter drone" oneway="0"/>
    <type id="highway.residential" priority="3" numLanes="1" speed="13.89" disallow="tram rail_urban rail rail_electric rail_fast ship container cable_car subway aircraft wheelchair scooter drone" oneway="0"/>
    <type id="highway.service" priority="1" numLanes="1" speed="5.56" allow="pedestrian delivery bicycle" oneway="0"/>
    <type id="highway.tertiary" priority="10" numLanes="1" speed="22.22" disallow="tram rail_urban rail rail_electric rail_fast ship container cable_car subway aircraft wheelchair scooter drone" oneway="0"/>
    <type id="highway.tertiary_link" priority="5" numLanes="1" speed="22.22" disallow="tram rail_urban rail rail_electric rail_fast ship container cable_car subway aircraft wheelchair scooter drone" oneway="0"/>
    <type id="highway.unclassified" priority="4" numLanes="1" speed="13.89" disallow="tram rail_urban rail rail_electric rail_fast ship container cable_car subway aircraft wheelchair scooter drone" oneway="0"/>

    <edge id=":10181900839_0" function="internal">
        <lane id=":10181900839_0_0" index="0" disallow="tram rail_urban rail rail_electric rail_fast ship container cable_car subway aircraft wheelchair scooter drone" speed="13.89" length="19.12" shape="2244.55,1130.53 2240.54,1128.84 2235.54,1127.58 2230.42,1126.68 2226.04,1126.09"/>
    </edge>
    <edge id=":10181900839_1" function="internal">
        <lane id=":10181900839_1_0" index="0" disallow="tram rail_urban rail rail_electric rail_fast ship container cable_car subway aircraft wheelchair scooter drone" speed="13.89" length="20.27" shape="2244.55,1130.53 2240.70,1127.99 2236.27,1124.56 2232.22,1120.77 2229.51,1117.17"/>
    </edge>
    <edge id=":10181900839_2" function="internal">
        <lane id=":10181900839_2_0" index="0" disallow="tram rail_urban rail rail_electric rail_fast ship container cable_car subway aircraft wheelchair scooter drone" speed="13.89" length="20.23" shape="2231.72,1114.45 2234.39,1118.08 2238.37,1121.93 2242.73,1125.42 2246.54,1127.99"/>
    </edge>
    <edge id=":10181900839_3" function="internal">
        <lane id=":10181900839_3_0" index="0" disallow="tram rail_urban rail rail_electric rail_fast ship container cable_car subway aircraft wheelchair scooter drone" speed="7.55" length="3.39" shape="2231.72,1114.45 2232.93,1117.61"/>
    </edge>
    <edge id=":10181900839_6" function="internal">
        <lane id=":10181900839_6_0" index="0" disallow="tram rail_urban rail rail_electric rail_fast ship container cable_car subway aircraft wheelchair scooter drone" speed="7.55" length="14.79" shape="2232.93,1117.61 2233.89,1120.10 2233.67,1123.92 2231.05,1125.92 2226.04,1126.09"/>
    </edge>
    <edge id=":10181900839_4" function="internal">
        <lane id=":10181900839_4_0" index="0" disallow="tram rail_urban rail rail_electric rail_fast ship container cable_car subway aircraft wheelchair scooter drone" speed="5.57" length="9.20" shape="2226.42,1122.91 2229.03,1122.84 2230.41,1121.86 2230.58,1119.97 2229.51,1117.17"/>
    </edge>
    <edge id=":10181900839_5" function="internal">
        <lane id=":10181900839_5_0" index="0" disallow="tram rail_urban rail rail_electric rail_fast ship container cable_car subway aircraft wheelchair scooter drone" speed="13.89" length="20.83" shape="2226.42,1122.91 2231.06,1123.60 2236.73,1124.72 2242.28,1126.20 2246.54,1127.99"/>
    </edge>
    <edge id=":10208774110_0" function="internal">
        <lane id=":10208774110_0_0" index="0" disallow="tram rail_urban rail rail_electric rail_fast ship container cable_car subway aircraft wheelchair scooter drone" speed="22.22" length="8.30" shape="1710.87,1214.20 1708.48,1222.14"/>
    </edge>
    <edge id=":10208774110_1" function="internal">
        <lane id=":10208774110_1_0" index="0" disallow="tram rail_urban rail rail_electric rail_fast ship container cable_car subway aircraft wheelchair scooter drone" speed="8.47" length="3.81" shape="1710.87,1214.20 1709.26,1217.52 1709.17,1217.60"/>
    </edge>
    <edge id=":10208774110_6" function="internal">
        <lane id=":10208774110_6_0" index="0" disallow="tram rail_urban rail rail_electric rail_fast ship container cable_car subway aircraft wheelchair scooter drone" speed="8.47" length="10.48" shape="1709.17,1217.60 1706.85,1219.69 1703.65,1220.71 1699.66,1220.58"/>
    </edge>
    <edge id=":10208774110_2" function="internal">
        <lane id=":10208774110_2_0" index="0" disallow="tram rail_urban rail rail_electric rail_fast ship container cable_car subway aircraft wheelchair scooter drone" speed="7.06" length="9.65" shape="1700.16,1217.42 1702.91,1217.52 1705.10,1216.86 1706.74,1215.44 1707.82,1213.25"/>
    </edge>
    <edge id=":10208774110_3" function="internal">
        <lane id=":10208774110_3_0" index="0" disallow="tram rail_urban rail rail_electric rail_fast ship container cable_car subway aircraft wheelchair scooter drone" speed="6.73" length="10.42" shape="1700.16,1217.42 1704.12,1218.27 1706.82,1219.34 1708.27,1220.63 1708.48,1222.14"/>
    </edge>
    <edge id=":10208774110_4" function="internal">
        <lane id=":10208774110_4_0" index="0" disallow="tram rail_urban rail rail_electric rail_fast ship container cable_car subway aircraft wheelchair scooter drone" speed="5.25" length="5.91" shape="1705.38,1221.34 1704.73,1220.84 1702.98,1220.66 1701.00,1220.63 1699.66,1220.58"/>
    </edge>
    <edge id=":10208774110_5" function="internal">
        <lane id=":10208774110_5_0" index="0" disallow="tram rail_urban rail rail_electric rail_fast ship container cable_car subway aircraft wheelchair scooter drone" speed="22.22" length="8.46" shape="1705.38,1221.34 1707.82,1213.25"/>
    </edge>
    <edge id=":10241773364_0" function="internal">
        <lane id=":10241773364_0_0" index="0" disallow="tram rail_urban rail rail_electric rail_fast ship container cable_car subway aircraft wheelchair scooter drone" speed="13.89" length="18.18" shape="1055.19,1361.55 1052.41,1358.71 1047.82,1356.70 1043.13,1354.73 1040.03,1352.03"/>
    </edge>
    <edge id=":10241773364_1" function="internal">
        <lane id=":10241773364_1_0" index="0" disallow="tram rail_urban rail rail_electric rail_fast ship container cable_car subway aircraft wheelchair scooter drone" speed="7.98" length="1.95" shape="1055.19,1361.55 1054.66,1359.68"/>
    </edge>
    <edge id=":10241773364_6" function="internal">
        <lane id=":10241773364_6_0" index="0" disallow="tram rail_urban rail rail_electric rail_fast ship container cable_car subway aircraft wheelchair scooter drone" speed="7.98" length="13.56" shape="1054.66,1359.68 1053.72,1356.36 1053.67,1352.41 1055.04,1349.72 1057.83,1348.28"/>
    </edge>
    <edge id=":10241773364_2" function="internal">
        <lane id=":10241773364_2_0" index="0" disallow="tram rail_urban rail rail_electric rail_fast ship container cable_car subway aircraft wheelchair scooter drone" speed="5.83" length="9.61" shape="1058.55,1351.40 1056.04,1352.40 1054.91,1353.90 1055.18,1355.90 1056.83,1358.41"/>
    </edge>
    <edge id=":10241773364_3" function="internal">
        <lane id=":10241773364_3_0" index="0" disallow="tram rail_urban rail rail_electric rail_fast ship container cable_car subway aircraft wheelchair scooter drone" speed="10.19" length="19.08" shape="1058.55,1351.40 1051.09,1352.90 1045.51,1353.51 1041.83,1353.22 1040.03,1352.03"/>
    </edge>
    <edge id=":10241773364_4" function="internal">
        <lane id=":10241773364_4_0" index="0" disallow="tram rail_urban rail rail_electric rail_fast ship container cable_car subway aircraft wheelchair scooter drone" speed="9.51" length="16.51" shape="1041.84,1348.59 1043.43,1349.71 1046.63,1350.03 1051.43,1349.56 1057.83,1348.28"/>
    </edge>
    <edge id=":10241773364_5" function="internal">
        <lane id=":10241773364_5_0" index="0" disallow="tram rail_urban rail rail_electric rail_fast ship container cable_car subway aircraft wheelchair scooter drone" speed="13.89" length="18.08" shape="1041.84,1348.59 1044.70,1351.46 1048.99,1353.73 1053.45,1355.89 1056.83,1358.41"/>
    </edge>
    <edge id=":10241773379_0" function="internal">
        <lane id=":10241773379_0_0" index="0" disallow="tram rail_urban rail rail_electric rail_fast ship container cable_car subway aircraft wheelchair scooter drone" speed="13.89" length="12.56" shape="1177.14,1234.23 1174.58,1232.01 1172.23,1230.26 1169.67,1228.92 1166.48,1227.89"/>
    </edge>
    <edge id=":10241773379_1" function="internal">
        <lane id=":10241773379_1_0" index="0" disallow="tram rail_urban rail rail_electric rail_fast ship container cable_car subway aircraft wheelchair scooter drone" speed="7.59" length="4.05" shape="1177.14,1234.23 1174.52,1231.14"/>
    </edge>
    <edge id=":10241773379_6" function="internal">
        <lane id=":10241773379_6_0" index="0" disallow="tram rail_urban rail rail_electric rail_fast ship container cable_car subway aircraft wheelchair scooter drone" speed="7.59" length="11.27" shape="1174.52,1231.14 1174.31,1230.90 1173.54,1227.72 1174.80,1224.69 1178.12,1221.81"/>
    </edge>
    <edge id=":10241773379_2" function="internal">
        <lane id=":10241773379_2_0" index="0" disallow="tram rail_urban rail rail_electric rail_fast ship container cable_car subway aircraft wheelchair scooter drone" speed="5.99" length="9.07" shape="1179.86,1224.50 1177.89,1226.20 1177.14,1228.00 1177.61,1229.88 1179.28,1231.86"/>
    </edge>
    <edge id=":10241773379_3" function="internal">
        <lane id=":10241773379_3_0" index="0" disallow="tram rail_urban rail rail_electric rail_fast ship container cable_car subway aircraft wheelchair scooter drone" speed="12.09" length="14.16" shape="1179.86,1224.50 1176.21,1226.52 1172.77,1227.76 1169.52,1228.22 1166.48,1227.89"/>
    </edge>
    <edge id=":10241773379_4" function="internal">
        <lane id=":10241773379_4_0" index="0" disallow="tram rail_urban rail rail_electric rail_fast ship container cable_car subway aircraft wheelchair scooter drone" speed="10.96" length="11.57" shape="1167.24,1224.78 1169.62,1225.01 1172.24,1224.60 1175.07,1223.53 1178.12,1221.81"/>
    </edge>
    <edge id=":10241773379_5" function="internal">
        <lane id=":10241773379_5_0" index="0" disallow="tram rail_urban rail rail_electric rail_fast ship container cable_car subway aircraft wheelchair scooter drone" speed="13.89" length="14.11" shape="1167.24,1224.78 1170.64,1225.92 1173.68,1227.52 1176.51,1229.52 1179.28,1231.86"/>
    </edge>
    <edge id=":10241773392_0" function="internal">
        <lane id=":10241773392_0_0" index="0" disallow="tram rail_urban rail rail_electric rail_fast ship container cable_car subway aircraft wheelchair scooter drone" speed="13.89" length="13.03" shape="1202.40,1540.55 1198.98,1540.99 1195.95,1541.51 1192.96,1542.20 1189.64,1543.13"/>
    </edge>
    <edge id=":10241773392_1" function="internal">
        <lane id=":10241773392_1_0" index="0" disallow="tram rail_urban rail rail_electric rail_fast ship container cable_car subway aircraft wheelchair scooter drone" speed="8.02" length="3.80" shape="1202.40,1540.55 1198.72,1540.44 1198.61,1540.39"/>
    </edge>
    <edge id=":10241773392_6" function="internal">
        <lane id=":10241773392_6_0" index="0" disallow="tram rail_urban rail rail_electric rail_fast ship container cable_car subway aircraft wheelchair scooter drone" speed="8.02" length="9.73" shape="1198.61,1540.39 1195.89,1539.21 1193.90,1536.85 1192.75,1533.36"/>
    </edge>
    <edge id=":10241773392_2" function="internal">
        <lane id=":10241773392_2_0" index="0" disallow="tram rail_urban rail rail_electric rail_fast ship container cable_car subway aircraft wheelchair scooter drone" speed="6.52" length="8.61" shape="1195.90,1532.79 1196.63,1535.01 1197.90,1536.52 1199.70,1537.30 1202.04,1537.37"/>
    </edge>
    <edge id=":10241773392_3" function="internal">
        <lane id=":10241773392_3_0" index="0" disallow="tram rail_urban rail rail_electric rail_fast ship container cable_car subway aircraft wheelchair scooter drone" speed="8.14" length="13.47" shape="1195.90,1532.79 1196.05,1536.45 1195.06,1539.40 1192.92,1541.62 1189.64,1543.13"/>
    </edge>
    <edge id=":10241773392_4" function="internal">
        <lane id=":10241773392_4_0" index="0" disallow="tram rail_urban rail rail_electric rail_fast ship container cable_car subway aircraft wheelchair scooter drone" speed="6.66" length="8.71" shape="1188.73,1540.06 1190.84,1539.09 1192.22,1537.65 1192.85,1535.74 1192.75,1533.36"/>
    </edge>
    <edge id=":10241773392_5" function="internal">
        <lane id=":10241773392_5_0" index="0" disallow="tram rail_urban rail rail_electric rail_fast ship container cable_car subway aircraft wheelchair scooter drone" speed="13.89" length="13.60" shape="1188.73,1540.06 1192.13,1539.12 1195.32,1538.39 1198.54,1537.82 1202.04,1537.37"/>
    </edge>
    <edge id=":10241773395_0" function="internal">
        <lane id=":10241773395_0_0" index="0" disallow="tram rail_urban rail rail_electric rail_fast ship container cable_car subway aircraft wheelchair scooter drone" speed="13.89" length="9.50" shape="1238.92,1569.07 1230.71,1573.86"/>
        <lane id=":10241773395_0_1" index="1" disallow="tram rail_urban rail rail_electric rail_fast ship container cable_car subway aircraft wheelchair scooter drone" speed="13.89" length="9.50" shape="1237.30,1566.31 1229.10,1571.10"/>
        <lane id=":10241773395_0_2" index="2" disallow="tram rail_urban rail rail_electric rail_fast ship container cable_car subway aircraft wheelchair scooter drone" speed="13.89" length="9.50" shape="1235.69,1563.55 1227.49,1568.33"/>
    </edge>
    <edge id=":10241773395_3" function="internal">
        <lane id=":10241773395_3_0" index="0" disallow="tram rail_urban rail rail_electric rail_fast ship container cable_car subway aircraft wheelchair scooter drone" speed="5.92" length="8.28" shape="1235.69,1563.55 1233.09,1564.78 1231.04,1565.13 1229.53,1564.60 1228.57,1563.18"/>
    </edge>
    <edge id=":10241773395_4" function="internal">
        <lane id=":10241773395_4_0" index="0" disallow="tram rail_urban rail rail_electric rail_fast ship container cable_car subway aircraft wheelchair scooter drone" speed="7.37" length="10.29" shape="1231.57,1562.07 1232.28,1564.97 1232.10,1567.45 1231.04,1569.49 1229.10,1571.10"/>
        <lane id=":10241773395_4_1" index="1" disallow="tram rail_urban rail rail_electric rail_fast ship container cable_car subway aircraft wheelchair scooter drone" speed="6.61" length="8.11" shape="1231.57,1562.07 1231.76,1563.66 1231.14,1565.23 1229.71,1566.79 1227.49,1568.33"/>
    </edge>
    <edge id=":10241773396_0" function="internal">
        <lane id=":10241773396_0_0" index="0" disallow="tram rail_urban rail rail_electric rail_fast ship container cable_car subway aircraft wheelchair scooter drone" speed="13.89" length="9.49" shape="1174.62,1609.79 1166.83,1615.22"/>
        <lane id=":10241773396_0_1" index="1" disallow="tram rail_urban rail rail_electric rail_fast ship container cable_car subway aircraft wheelchair scooter drone" speed="13.89" length="9.49" shape="1172.79,1607.17 1165.00,1612.59"/>
        <lane id=":10241773396_0_2" index="2" disallow="tram rail_urban rail rail_electric rail_fast ship container cable_car subway aircraft wheelchair scooter drone" speed="13.89" length="9.49" shape="1170.96,1604.54 1163.17,1609.97"/>
    </edge>
    <edge id=":10241773396_3" function="internal">
        <lane id=":10241773396_3_0" index="0" disallow="tram rail_urban rail rail_electric rail_fast ship container cable_car subway aircraft wheelchair scooter drone" speed="5.93" length="8.26" shape="1170.96,1604.54 1168.47,1605.98 1166.45,1606.50 1164.90,1606.10 1163.83,1604.77"/>
    </edge>
    <edge id=":10241773396_4" function="internal">
        <lane id=":10241773396_4_0" index="0" disallow="tram rail_urban rail rail_electric rail_fast ship container cable_car subway aircraft wheelchair scooter drone" speed="7.35" length="10.29" shape="1166.73,1603.41 1167.68,1606.24 1167.71,1608.71 1166.81,1610.83 1165.00,1612.59"/>
        <lane id=":10241773396_4_1" index="1" disallow="tram rail_urban rail rail_electric rail_fast ship container cable_car subway aircraft wheelchair scooter drone" speed="6.59" length="8.10" shape="1166.73,1603.41 1167.05,1604.97 1166.56,1606.59 1165.27,1608.25 1163.17,1609.97"/>
    </edge>
    <edge id=":10241773409_0" function="internal">
        <lane id=":10241773409_0_0" index="0" disallow="tram rail_urban rail rail_electric rail_fast ship container cable_car subway aircraft wheelchair scooter drone" speed="8.31" length="11.93" shape="1165.54,1258.00 1163.10,1259.29 1161.39,1261.34 1160.39,1264.12 1160.12,1267.66"/>
    </edge>
    <edge id=":10241773409_1" function="internal">
        <lane id=":10241773409_1_0" index="0" disallow="tram rail_urban rail rail_electric rail_fast ship container cable_car subway aircraft wheelchair scooter drone" speed="13.89" length="13.56" shape="1165.54,1258.00 1162.19,1259.15 1159.06,1260.13 1155.89,1260.78 1152.39,1260.92"/>
    </edge>
    <edge id=":10241773409_2" function="internal">
        <lane id=":10241773409_2_0" index="0" disallow="tram rail_urban rail rail_electric rail_fast ship container cable_car subway aircraft wheelchair scooter drone" speed="13.89" length="11.23" shape="1152.54,1257.72 1155.68,1257.67 1158.07,1257.20 1160.41,1256.40 1163.41,1255.33"/>
    </edge>
    <edge id=":10241773409_3" function="internal">
        <lane id=":10241773409_3_0" index="0" disallow="tram rail_urban rail rail_electric rail_fast ship container cable_car subway aircraft wheelchair scooter drone" speed="8.15" length="13.98" shape="1152.54,1257.72 1155.78,1258.47 1158.12,1260.38 1159.57,1263.44 1160.12,1267.66"/>
    </edge>
    <edge id=":10241773409_4" function="internal">
        <lane id=":10241773409_4_0" index="0" disallow="tram rail_urban rail rail_electric rail_fast ship container cable_car subway aircraft wheelchair scooter drone" speed="6.16" length="9.05" shape="1157.00,1266.96 1157.19,1264.42 1156.49,1262.57 1154.89,1261.40 1152.39,1260.92"/>
    </edge>
    <edge id=":10241773409_5" function="internal">
        <lane id=":10241773409_5_0" index="0" disallow="tram rail_urban rail rail_electric rail_fast ship container cable_car subway aircraft wheelchair scooter drone" speed="10.12" length="13.73" shape="1157.00,1266.96 1158.26,1262.38 1159.75,1258.91 1161.47,1256.57 1163.41,1255.33"/>
    </edge>
    <edge id=":10294506869_0" function="internal">
        <lane id=":10294506869_0_0" index="0" disallow="tram rail_urban rail rail_electric rail_fast ship container cable_car subway aircraft wheelchair scooter drone" speed="13.89" length="14.81" shape="2093.20,889.55 2089.95,892.19 2087.92,894.23 2086.08,896.47 2083.35,899.68"/>
        <lane id=":10294506869_0_1" index="1" disallow="tram rail_urban rail rail_electric rail_fast ship container cable_car subway aircraft wheelchair scooter drone" speed="13.89" length="14.81" shape="2091.27,887.00 2087.87,889.75 2085.74,891.88 2083.80,894.21 2080.96,897.56"/>
        <lane id=":10294506869_0_2" index="2" disallow="tram rail_urban rail rail_electric rail_fast ship container cable_car subway aircraft wheelchair scooter drone" speed="13.89" length="14.81" shape="2089.34,884.45 2085.78,887.32 2083.56,889.53 2081.53,891.94 2078.56,895.44"/>
    </edge>
    <edge id=":10294506869_3" function="internal">
        <lane id=":10294506869_3_0" index="0" disallow="tram rail_urban rail rail_electric rail_fast ship container cable_car subway aircraft wheelchair scooter drone" speed="12.59" length="14.41" shape="2089.34,884.45 2085.64,887.07 2082.57,888.69 2079.60,889.39 2076.25,889.29"/>
    </edge>
    <edge id=":10294506869_4" function="internal">
        <lane id=":10294506869_4_0" index="0" disallow="tram rail_urban rail rail_electric rail_fast ship container cable_car subway aircraft wheelchair scooter drone" speed="7.38" length="17.37" shape="2076.65,886.12 2081.79,887.45 2084.21,889.80 2083.94,893.17 2080.96,897.56"/>
        <lane id=":10294506869_4_1" index="1" disallow="tram rail_urban rail rail_electric rail_fast ship container cable_car subway aircraft wheelchair scooter drone" speed="6.56" length="13.39" shape="2076.65,886.12 2080.20,887.13 2081.69,889.03 2081.15,891.80 2078.56,895.44"/>
    </edge>
    <edge id=":11195287919_0" function="internal">
        <lane id=":11195287919_0_0" index="0" disallow="tram rail_urban rail rail_electric rail_fast ship container cable_car subway aircraft wheelchair scooter drone" speed="13.89" length="14.49" shape="2364.42,913.72 2361.92,927.99"/>
    </edge>
    <edge id=":11195287919_1" function="internal">
        <lane id=":11195287919_1_0" index="0" disallow="tram rail_urban rail rail_electric rail_fast ship container cable_car subway aircraft wheelchair scooter drone" speed="7.74" length="4.16" shape="2364.42,913.72 2363.13,917.68"/>
    </edge>
    <edge id=":11195287919_6" function="internal">
        <lane id=":11195287919_6_0" index="0" disallow="tram rail_urban rail rail_electric rail_fast ship container cable_car subway aircraft wheelchair scooter drone" speed="7.74" length="10.67" shape="2363.13,917.68 2360.90,920.06 2357.74,920.85 2353.66,920.07"/>
    </edge>
    <edge id=":11195287919_2" function="internal">
        <lane id=":11195287919_2_0" index="0" disallow="tram rail_urban rail rail_electric rail_fast ship container cable_car subway aircraft wheelchair scooter drone" speed="6.19" length="9.05" shape="2354.70,917.04 2357.20,917.52 2359.12,917.04 2360.48,915.59 2361.27,913.17"/>
    </edge>
    <edge id=":11195287919_3" function="internal">
        <lane id=":11195287919_3_0" index="0" disallow="tram rail_urban rail rail_electric rail_fast ship container cable_car subway aircraft wheelchair scooter drone" speed="8.58" length="14.48" shape="2354.70,917.04 2358.39,918.84 2360.82,921.27 2361.99,924.32 2361.92,927.99"/>
    </edge>
    <edge id=":11195287919_4" function="internal">
        <lane id=":11195287919_4_0" index="0" disallow="tram rail_urban rail rail_electric rail_fast ship container cable_car subway aircraft wheelchair scooter drone" speed="7.19" length="9.90" shape="2358.77,927.44 2358.80,925.00 2357.95,922.95 2356.24,921.31 2353.66,920.07"/>
    </edge>
    <edge id=":11195287919_5" function="internal">
        <lane id=":11195287919_5_0" index="0" disallow="tram rail_urban rail rail_electric rail_fast ship container cable_car subway aircraft wheelchair scooter drone" speed="13.89" length="14.48" shape="2358.77,927.44 2361.27,913.17"/>
    </edge>
    <edge id=":11224496820_0" function="internal">
        <lane id=":11224496820_0_0" index="0" disallow="tram rail_urban rail rail_electric rail_fast ship container cable_car subway aircraft wheelchair scooter drone" speed="13.89" length="15.29" shape="1167.67,961.93 1168.19,965.69 1168.56,969.52 1168.77,973.36 1168.81,977.16"/>
    </edge>
    <edge id=":11224496820_1" function="internal">
        <lane id=":11224496820_1_0" index="0" disallow="tram rail_urban rail rail_electric rail_fast ship container cable_car subway aircraft wheelchair scooter drone" speed="7.66" length="4.47" shape="1167.67,961.93 1167.72,966.21 1167.64,966.38"/>
    </edge>
    <edge id=":11224496820_6" function="internal">
        <lane id=":11224496820_6_0" index="0" disallow="tram rail_urban rail rail_electric rail_fast ship container cable_car subway aircraft wheelchair scooter drone" speed="7.66" length="10.65" shape="1167.64,966.38 1166.34,969.18 1163.50,970.82 1159.23,971.14"/>
    </edge>
    <edge id=":11224496820_2" function="internal">
        <lane id=":11224496820_2_0" index="0" disallow="tram rail_urban rail rail_electric rail_fast ship container cable_car subway aircraft wheelchair scooter drone" speed="6.08" length="9.07" shape="1159.45,967.95 1162.01,967.76 1163.71,966.77 1164.54,964.99 1164.51,962.42"/>
    </edge>
    <edge id=":11224496820_3" function="internal">
        <lane id=":11224496820_3_0" index="0" disallow="tram rail_urban rail rail_electric rail_fast ship container cable_car subway aircraft wheelchair scooter drone" speed="8.31" length="14.80" shape="1159.45,967.95 1163.60,968.77 1166.54,970.57 1168.28,973.37 1168.81,977.16"/>
    </edge>
    <edge id=":11224496820_4" function="internal">
        <lane id=":11224496820_4_0" index="0" disallow="tram rail_urban rail rail_electric rail_fast ship container cable_car subway aircraft wheelchair scooter drone" speed="6.88" length="9.83" shape="1165.61,977.10 1165.24,974.66 1164.06,972.85 1162.06,971.68 1159.23,971.14"/>
    </edge>
    <edge id=":11224496820_5" function="internal">
        <lane id=":11224496820_5_0" index="0" disallow="tram rail_urban rail rail_electric rail_fast ship container cable_car subway aircraft wheelchair scooter drone" speed="13.89" length="14.74" shape="1165.61,977.10 1165.58,973.39 1165.38,969.74 1165.02,966.10 1164.51,962.42"/>
    </edge>
    <edge id=":11224496824_0" function="internal">
        <lane id=":11224496824_0_0" index="0" disallow="tram rail_urban rail rail_electric rail_fast ship container cable_car subway aircraft wheelchair scooter drone" speed="13.89" length="7.76" shape="1161.50,1135.98 1159.55,1134.75 1158.21,1133.86 1156.78,1133.20 1154.58,1132.65"/>
    </edge>
    <edge id=":11224496824_1" function="internal">
        <lane id=":11224496824_1_0" index="0" disallow="tram rail_urban rail rail_electric rail_fast ship container cable_car subway aircraft wheelchair scooter drone" speed="8.71" length="4.05" shape="1161.50,1135.98 1158.83,1133.87 1158.49,1133.32"/>
    </edge>
    <edge id=":11224496824_6" function="internal">
        <lane id=":11224496824_6_0" index="0" disallow="tram rail_urban rail rail_electric rail_fast ship container cable_car subway aircraft wheelchair scooter drone" speed="8.71" length="9.29" shape="1158.49,1133.32 1157.20,1131.24 1156.61,1128.12 1157.07,1124.48"/>
    </edge>
    <edge id=":11224496824_2" function="internal">
        <lane id=":11224496824_2_0" index="0" disallow="tram rail_urban rail rail_electric rail_fast ship container cable_car subway aircraft wheelchair scooter drone" speed="7.32" length="9.18" shape="1160.17,1125.26 1159.84,1127.80 1160.22,1129.97 1161.31,1131.78 1163.11,1133.22"/>
    </edge>
    <edge id=":11224496824_3" function="internal">
        <lane id=":11224496824_3_0" index="0" disallow="tram rail_urban rail rail_electric rail_fast ship container cable_car subway aircraft wheelchair scooter drone" speed="6.97" length="10.07" shape="1160.17,1125.26 1159.06,1128.75 1157.76,1131.15 1156.26,1132.45 1154.58,1132.65"/>
    </edge>
    <edge id=":11224496824_4" function="internal">
        <lane id=":11224496824_4_0" index="0" disallow="tram rail_urban rail rail_electric rail_fast ship container cable_car subway aircraft wheelchair scooter drone" speed="5.34" length="5.51" shape="1155.18,1129.51 1155.86,1128.94 1156.40,1127.43 1156.81,1125.70 1157.07,1124.48"/>
    </edge>
    <edge id=":11224496824_5" function="internal">
        <lane id=":11224496824_5_0" index="0" disallow="tram rail_urban rail rail_electric rail_fast ship container cable_car subway aircraft wheelchair scooter drone" speed="13.89" length="8.84" shape="1155.18,1129.51 1157.70,1130.13 1159.34,1130.85 1160.88,1131.82 1163.11,1133.22"/>
    </edge>
    <edge id=":11224496836_0" function="internal">
        <lane id=":11224496836_0_0" index="0" disallow="tram rail_urban rail rail_electric rail_fast ship container cable_car subway aircraft wheelchair scooter drone" speed="7.04" length="9.75" shape="1077.45,1148.58 1074.66,1148.21 1072.39,1148.67 1070.63,1149.96 1069.39,1152.07"/>
    </edge>
    <edge id=":11224496836_1" function="internal">