<additional>
    <poly id="building_0" type="building" color="200,200,200" fill="true" layer="2" shape="1790.03,1052.21 1790.63,1042.15 1800.38,1041.43 1802.68,1048.80 1790.03,1052.21"/>
    <poly id="building_1" type="building" color="200,200,200" fill="true" layer="2" shape="2128.57,919.31 2137.43,933.94 2127.00,940.17 2118.14,925.54 2128.57,919.31"/>
    <poly id="building_2" type="building" color="200,200,200" fill="true" layer="2" shape="2153.14,895.11 2159.61,889.07 2166.24,887.42 2170.99,887.10 2173.96,894.82 2170.26,898.56 2166.67,902.59 2161.73,905.77 2155.65,901.35 2153.14,895.11"/>
    <poly id="building_3" type="building" color="200,200,200" fill="true" layer="2" shape="2070.90,1054.98 2068.63,1044.04 2102.19,1037.16 2104.47,1048.10 2091.58,1050.75 2070.90,1054.98"/>
    <poly id="building_4" type="building" color="200,200,200" fill="true" layer="2" shape="1797.44,1165.16 1788.97,1155.41 1800.29,1145.71 1808.75,1155.47 1797.44,1165.16"/>
    <poly id="building_5" type="building" color="200,200,200" fill="true" layer="2" shape="1607.90,1402.98 1592.88,1370.70 1614.13,1360.94 1629.15,1393.22 1607.90,1402.98"/>
    <poly id="building_6" type="building" color="200,200,200" fill="true" layer="2" shape="1588.48,1328.10 1586.31,1323.61 1583.92,1324.75 1579.70,1316.00 1581.12,1315.32 1578.10,1309.10 1587.10,1304.80 1592.53,1316.01 1591.21,1316.63 1595.21,1324.89 1588.48,1328.10"/>
    <poly id="building_7" type="building" color="200,200,200" fill="true" layer="2" shape="2068.03,980.81 2062.02,966.02 2072.07,961.98 2078.09,976.78 2068.03,980.81"/>
    <poly id="building_8" type="building" color="200,200,200" fill="true" layer="2" shape="1979.16,982.29 1969.23,968.39 1983.28,958.47 1993.21,972.37 1979.16,982.29"/>
    <poly id="building_9" type="building" color="200,200,200" fill="true" layer="2" shape="1690.91,1728.25 1686.63,1650.78 1774.04,1632.63 1793.13,1710.19 1690.91,1728.25"/>
    <poly id="building_10" type="building" color="200,200,200" fill="true" layer="2" shape="1284.36,1527.60 1281.80,1519.33 1291.79,1516.28 1294.34,1524.55 1284.36,1527.60"/>
    <poly id="building_11" type="building" color="200,200,200" fill="true" layer="2" shape="1301.09,1515.29 1290.46,1487.07 1303.17,1482.35 1309.64,1499.52 1324.82,1493.88 1328.98,1504.91 1301.09,1515.29"/>
    <poly id="building_12" type="building" color="200,200,200" fill="true" layer="2" shape="2136.57,905.21 2132.19,894.62 2150.55,885.33 2151.67,900.01 2136.57,905.21"/>
    <poly id="building_13" type="building" color="200,200,200" fill="true" layer="2" shape="1831.51,1853.31 1823.87,1861.28 1825.90,1867.11 1836.04,1863.08 1831.51,1853.31"/>
    <poly id="building_14" type="building" color="200,200,200" fill="true" layer="2" shape="1548.91,1390.87 1552.38,1398.27 1561.73,1393.94 1558.26,1386.54 1548.91,1390.87"/>
    <poly id="building_15" type="building" color="200,200,200" fill="true" layer="2" shape="1685.34,883.78 1711.11,920.30 1720.92,913.47 1695.17,876.94 1685.34,883.78"/>
    <poly id="building_16" type="building" color="200,200,200" fill="true" layer="2" shape="2064.71,1674.69 2064.32,1678.74 2076.63,1679.93 2077.82,1667.80 2065.50,1666.61 2064.71,1674.69"/>
    <poly id="building_17" type="building" color="200,200,200" fill="true" layer="2" shape="1092.45,1698.52 1094.60,1701.96 1100.78,1698.13 1098.62,1694.70 1092.45,1698.52"/>
    <poly id="building_18" type="building" color="200,200,200" fill="true" layer="2" shape="1729.93,1083.43 1734.59,1071.10 1746.94,1075.70 1742.29,1088.03 1729.93,1083.43"/>
    <poly id="building_19" type="building" color="200,200,200" fill="true" layer="2" shape="1661.76,867.06 1660.65,865.56 1655.59,858.81 1668.65,850.36 1677.46,858.63 1661.76,867.06"/>
    <poly id="building_20" type="building" color="200,200,200" fill="true" layer="2" shape="2170.06,862.63 2174.99,870.79 2180.06,867.77 2181.47,870.10 2186.77,866.93 2180.43,856.44 2170.06,862.63"/>
    <poly id="building_21" type="building" color="200,200,200" fill="true" layer="2" shape="2110.85,843.61 2118.00,856.28 2138.43,844.89 2135.40,839.55 2147.59,832.77 2143.44,825.43 2110.85,843.61"/>
    <poly id="building_22" type="building" color="200,200,200" fill="true" layer="2" shape="1461.21,1480.61 1463.57,1479.64 1473.83,1475.44 1471.63,1470.16 1459.01,1475.35 1461.21,1480.61"/>
    <poly id="building_23" type="building" color="200,200,200" fill="true" layer="2" shape="2069.07,1043.44 2099.91,1035.45 2096.27,1021.61 2065.43,1029.62 2069.07,1043.44"/>
    <poly id="building_24" type="building" color="200,200,200" fill="true" layer="2" shape="1039.41,1597.70 1042.99,1605.19 1049.31,1602.21 1051.73,1607.28 1066.05,1600.55 1062.72,1593.56 1060.06,1587.98 1039.41,1597.70"/>
    <poly id="water_25" type="water" color="170,211,223" fill="true" layer="0" shape="1473.24,1138.49 1492.93,1176.53 1510.53,1165.78 1477.32,1118.49 1473.24,1138.49"/>
    <poly id="building_26" type="building" color="200,200,200" fill="true" layer="2" shape="1662.15,1171.94 1709.74,1186.71 1712.80,1177.01 1665.19,1162.23 1662.15,1171.94"/>
    <poly id="building_27" type="building" color="200,200,200" fill="true" layer="2" shape="1559.64,983.92 1559.63,996.66 1567.23,996.67 1567.20,1029.07 1576.71,1029.07 1576.70,1034.80 1607.44,1034.83 1607.44,1024.13 1601.95,1024.13 1601.96,1012.93 1609.45,1012.94 1609.45,1003.39 1602.07,1003.39 1602.08,993.20 1607.69,993.19 1607.69,983.96 1559.64,983.92"/>
    <poly id="building_28" type="building" color="200,200,200" fill="true" layer="2" shape="1667.32,831.06 1679.17,826.29 1671.71,811.71 1659.72,817.38 1667.32,831.06"/>
    <poly id="building_29" type="building" color="200,200,200" fill="true" layer="2" shape="1681.96,820.44 1692.33,817.90 1686.48,794.27 1676.11,796.80 1681.96,820.44"/>
    <poly id="building_30" type="building" color="200,200,200" fill="true" layer="2" shape="1666.31,799.06 1674.29,797.65 1668.93,777.22 1659.62,778.05 1666.31,799.06"/>
    <poly id="building_31" type="building" color="200,200,200" fill="true" layer="2" shape="1639.78,845.60 1667.31,832.98 1658.68,817.67 1632.62,829.12 1639.78,845.60"/>
    <poly id="water_32" type="water" color="170,211,223" fill="true" layer="0" shape="1265.77,1883.51 1297.49,1872.40 1294.80,1845.63 1257.85,1860.46 1265.77,1883.51"/>
    <poly id="building_33" type="building" color="200,200,200" fill="true" layer="2" shape="1754.77,1250.31 1768.22,1237.21 1777.17,1246.27 1763.71,1259.38 1754.77,1250.31"/>
    <poly id="building_34" type="building" color="200,200,200" fill="true" layer="2" shape="1742.81,1262.30 1749.37,1253.59 1764.86,1265.11 1758.32,1273.82 1742.81,1262.30"/>
    <poly id="building_35" type="building" color="200,200,200" fill="true" layer="2" shape="1805.90,1209.57 1813.09,1216.19 1823.85,1204.66 1816.67,1198.04 1805.90,1209.57"/>
    <poly id="building_36" type="building" color="200,200,200" fill="true" layer="2" shape="1695.37,1385.28 1695.87,1358.61 1722.07,1359.10 1721.57,1385.77 1695.37,1385.28"/>
    <poly id="building_37" type="building" color="200,200,200" fill="true" layer="2" shape="1561.37,703.42 1562.36,707.74 1558.72,708.58 1557.72,704.25 1561.37,703.42"/>
    <poly id="building_38" type="building" color="200,200,200" fill="true" layer="2" shape="1357.55,1103.38 1362.87,1103.24 1362.97,1106.76 1357.66,1106.91 1357.55,1103.38"/>
    <poly id="building_39" type="building" color="200,200,200" fill="true" layer="2" shape="1059.26,1087.43 1058.96,1093.47 1049.38,1092.99 1050.13,1078.06 1062.66,1078.67 1062.20,1087.58 1059.26,1087.43"/>
    <poly id="building_40" type="building" color="200,200,200" fill="true" layer="2" shape="1252.46,1109.78 1251.22,1121.40 1240.99,1120.33 1242.22,1108.71 1252.46,1109.78"/>
    <poly id="building_41" type="building" color="200,200,200" fill="true" layer="2" shape="1189.01,833.58 1189.35,849.13 1181.08,849.30 1180.75,833.76 1189.01,833.58"/>
    <poly id="building_42" type="building" color="200,200,200" fill="true" layer="2" shape="1518.74,1084.22 1527.57,1084.81 1527.05,1092.70 1518.22,1092.12 1518.74,1084.22"/>
    <poly id="building_43" type="building" color="200,200,200" fill="true" layer="2" shape="1344.36,982.48 1326.94,982.10 1327.17,972.13 1344.59,972.52 1344.36,982.48"/>
    <poly id="building_44" type="building" color="200,200,200" fill="true" layer="2" shape="1239.65,767.24 1239.70,755.07 1252.40,755.13 1252.40,756.14 1260.97,756.18 1260.94,763.38 1266.84,763.41 1266.81,771.46 1256.00,771.42 1256.03,764.24 1250.59,764.22 1250.58,767.29 1239.65,767.24"/>
    <poly id="building_45" type="building" color="200,200,200" fill="true" layer="2" shape="1161.88,698.17 1166.01,698.02 1166.21,703.30 1162.08,703.45 1161.88,698.17"/>
    <poly id="building_46" type="building" color="200,200,200" fill="true" layer="2" shape="1057.92,805.82 1064.19,804.66 1065.27,810.32 1058.99,811.49 1057.92,805.82"/>
    <poly id="building_47" type="building" color="200,200,200" fill="true" layer="2" shape="1313.49,712.44 1320.31,713.43 1319.01,722.35 1312.17,721.35 1313.49,712.44"/>
    <poly id="building_48" type="building" color="200,200,200" fill="true" layer="2" shape="1468.13,1010.99 1477.57,1011.33 1477.23,1020.71 1467.79,1020.37 1468.13,1010.99"/>
    <poly id="building_49" type="building" color="200,200,200" fill="true" layer="2" shape="1080.64,974.90 1079.54,984.77 1067.86,983.49 1068.96,973.63 1080.64,974.90"/>
    <poly id="building_50" type="building" color="200,200,200" fill="true" layer="2" shape="1473.24,803.53 1480.98,804.91 1479.74,811.74 1472.01,810.35 1473.24,803.53"/>
    <poly id="building_51" type="building" color="200,200,200" fill="true" layer="2" shape="1287.92,1072.34 1291.35,1065.51 1298.94,1069.28 1295.51,1076.11 1287.92,1072.34"/>
    <poly id="building_52" type="building" color="200,200,200" fill="true" layer="2" shape="1581.32,760.42 1585.09,759.09 1587.70,766.36 1583.94,767.70 1581.32,760.42"/>
    <poly id="building_53" type="building" color="200,200,200" fill="true" layer="2" shape="1068.05,999.97 1068.61,994.74 1064.81,994.35 1065.70,986.04 1075.06,987.03 1074.41,993.00 1077.92,993.38 1077.11,1000.93 1068.05,999.97"/>
    <poly id="building_54" type="building" color="200,200,200" fill="true" layer="2" shape="1515.26,1071.14 1519.39,1071.37 1518.93,1079.41 1514.82,1079.18 1515.26,1071.14"/>
    <poly id="building_55" type="building" color="200,200,200" fill="true" layer="2" shape="1409.90,1082.82 1416.05,1083.37 1415.38,1090.79 1409.22,1090.24 1409.90,1082.82"/>
    <poly id="building_56" type="building" color="200,200,200" fill="true" layer="2" shape="1376.86,930.36 1386.29,930.77 1385.82,941.61 1376.38,941.20 1376.86,930.36"/>
    <poly id="building_57" type="building" color="200,200,200" fill="true" layer="2" shape="1082.96,952.84 1081.88,963.77 1072.38,962.84 1073.46,951.90 1082.96,952.84"/>
    <poly id="building_58" type="building" color="200,200,200" fill="true" layer="2" shape="1317.29,876.52 1306.97,876.84 1306.59,864.82 1316.92,864.51 1317.29,876.52"/>
    <poly id="building_59" type="building" color="200,200,200" fill="true" layer="2" shape="1295.63,1106.06 1298.11,1096.73 1305.86,1098.76 1303.37,1108.11 1295.63,1106.06"/>
    <poly id="building_60" type="building" color="200,200,200" fill="true" layer="2" shape="1326.79,946.61 1327.37,934.90 1346.53,935.83 1345.96,947.55 1326.79,946.61"/>
    <poly id="building_61" type="building" color="200,200,200" fill="true" layer="2" shape="1307.51,768.52 1296.89,768.70 1296.70,757.84 1307.33,757.67 1307.51,768.52"/>
    <poly id="building_62" type="building" color="200,200,200" fill="true" layer="2" shape="1192.88,795.56 1202.65,794.41 1203.12,798.33 1193.35,799.48 1192.88,795.56"/>
    <poly id="building_63" type="building" color="200,200,200" fill="true" layer="2" shape="1208.01,792.31 1227.33,794.21 1226.58,801.78 1207.26,799.87 1208.01,792.31"/>
    <poly id="building_64" type="building" color="200,200,200" fill="true" layer="2" shape="1114.42,841.59 1126.52,841.38 1126.76,853.69 1114.65,853.91 1114.42,841.59"/>
    <poly id="building_65" type="building" color="200,200,200" fill="true" layer="2" shape="1252.70,882.55 1253.13,874.66 1266.84,875.40 1266.37,884.18 1271.50,884.46 1271.12,891.49 1261.55,890.96 1261.99,883.07 1252.70,882.55"/>
    <poly id="building_66" type="building" color="200,200,200" fill="true" layer="2" shape="1177.36,833.21 1177.75,823.41 1186.90,823.78 1186.50,833.57 1177.36,833.21"/>
    <poly id="building_67" type="building" color="200,200,200" fill="true" layer="2" shape="1106.55,823.84 1105.80,816.59 1113.39,815.80 1114.15,823.06 1106.55,823.84"/>
    <poly id="building_68" type="building" color="200,200,200" fill="true" layer="2" shape="1167.98,725.70 1178.48,726.14 1177.99,737.57 1167.50,737.14 1167.98,725.70"/>
    <poly id="building_69" type="building" color="200,200,200" fill="true" layer="2" shape="1046.96,965.03 1046.98,956.70 1058.50,956.73 1058.48,965.06 1046.96,965.03"/>
    <poly id="building_70" type="building" color="200,200,200" fill="true" layer="2" shape="1271.94,1074.05 1285.84,1078.10 1282.88,1088.11 1268.98,1084.06 1271.94,1074.05"/>
    <poly id="building_71" type="building" color="200,200,200" fill="true" layer="2" shape="1316.36,984.65 1307.82,984.15 1308.36,975.22 1316.89,975.72 1316.36,984.65"/>
    <poly id="building_72" type="building" color="200,200,200" fill="true" layer="2" shape="1077.26,808.20 1081.39,808.43 1081.12,813.00 1077.00,812.77 1077.26,808.20"/>
    <poly id="building_73" type="building" color="200,200,200" fill="true" layer="2" shape="1227.50,888.41 1228.94,876.25 1238.86,877.41 1237.42,889.57 1227.50,888.41"/>
    <poly id="building_74" type="building" color="200,200,200" fill="true" layer="2" shape="1142.22,1096.96 1144.67,1085.74 1156.25,1088.24 1153.79,1099.46 1142.22,1096.96"/>
    <poly id="building_75" type="building" color="200,200,200" fill="true" layer="2" shape="1147.80,969.54 1159.57,970.25 1158.19,993.07 1143.47,992.18 1144.16,980.77 1147.11,980.95 1147.80,969.54"/>
    <poly id="building_76" type="building" color="200,200,200" fill="true" layer="2" shape="1331.44,860.39 1323.47,860.24 1323.71,847.76 1331.68,847.91 1331.44,860.39"/>
    <poly id="building_77" type="building" color="200,200,200" fill="true" layer="2" shape="1188.89,736.91 1184.22,736.41 1185.26,726.83 1189.93,727.34 1188.89,736.91"/>
    <poly id="building_78" type="building" color="200,200,200" fill="true" layer="2" shape="1427.73,697.56 1433.93,694.88 1437.92,703.99 1431.73,706.68 1427.73,697.56"/>
    <poly id="building_79" type="building" color="200,200,200" fill="true" layer="2" shape="1586.56,723.54 1589.02,718.18 1595.04,720.92 1592.58,726.27 1586.56,723.54"/>
    <poly id="building_80" type="building" color="200,200,200" fill="true" layer="2" shape="1361.71,855.04 1367.33,855.23 1366.90,866.95 1357.47,866.63 1358.19,846.26 1362.02,846.39 1361.71,855.04"/>
    <poly id="building_81" type="building" color="200,200,200" fill="true" layer="2" shape="1258.85,838.88 1256.98,853.16 1244.89,851.61 1246.77,837.32 1258.85,838.88"/>
    <poly id="building_82" type="building" color="200,200,200" fill="true" layer="2" shape="1351.13,1003.03 1361.89,1002.70 1362.19,1012.38 1351.43,1012.71 1351.13,1003.03"/>
    <poly id="building_83" type="building" color="200,200,200" fill="true" layer="2" shape="1209.87,1000.29 1209.29,1005.21 1201.42,1004.30 1202.00,999.36 1209.87,1000.29"/>
    <poly id="building_84" type="building" color="200,200,200" fill="true" layer="2" shape="1086.91,895.11 1075.70,895.44 1075.36,884.31 1086.57,883.97 1086.91,895.11"/>
    <poly id="building_85" type="building" color="200,200,200" fill="true" layer="2" shape="1520.78,915.28 1523.57,923.41 1515.91,926.02 1513.12,917.87 1520.78,915.28"/>
    <poly id="building_86" type="building" color="200,200,200" fill="true" layer="2" shape="1454.42,846.85 1464.75,847.23 1464.31,858.67 1453.98,858.28 1454.42,846.85"/>
    <poly id="building_87" type="building" color="200,200,200" fill="true" layer="2" shape="1055.64,935.42 1056.26,917.53 1065.99,917.86 1065.38,935.74 1055.64,935.42"/>
    <poly id="building_88" type="building" color="200,200,200" fill="true" layer="2" shape="1412.12,709.63 1405.33,709.90 1404.99,701.55 1411.78,701.27 1412.12,709.63"/>
    <poly id="building_89" type="building" color="200,200,200" fill="true" layer="2" shape="1085.05,1027.70 1085.64,1016.29 1093.75,1016.71 1093.98,1012.14 1098.41,1012.37 1097.57,1028.35 1085.05,1027.70"/>
    <poly id="building_90" type="building" color="200,200,200" fill="true" layer="2" shape="1520.76,1061.37 1515.46,1061.60 1515.30,1058.25 1520.60,1058.00 1520.76,1061.37"/>
    <poly id="building_91" type="building" color="200,200,200" fill="true" layer="2" shape="1183.93,1053.44 1183.50,1061.93 1173.48,1061.42 1173.91,1052.94 1183.93,1053.44"/>
    <poly id="building_92" type="building" color="200,200,200" fill="true" layer="2" shape="1339.53,821.22 1339.38,815.05 1345.71,814.91 1346.28,839.39 1338.02,839.58 1337.59,821.26 1339.53,821.22"/>
    <poly id="building_93" type="building" color="200,200,200" fill="true" layer="2" shape="1099.73,996.82 1099.90,1004.14 1092.52,1004.31 1092.35,996.99 1099.73,996.82"/>
    <poly id="building_94" type="building" color="200,200,200" fill="true" layer="2" shape="1153.38,1065.22 1153.37,1065.51 1145.86,1065.21 1146.35,1053.48 1159.76,1054.04 1159.29,1065.46 1153.38,1065.22"/>
    <poly id="building_95" type="building" color="200,200,200" fill="true" layer="2" shape="1098.84,744.36 1105.03,744.20 1105.37,756.52 1099.18,756.68 1098.84,744.36"/>
    <poly id="building_96" type="building" color="200,200,200" fill="true" layer="2" shape="1339.07,913.78 1339.88,906.67 1353.60,908.22 1352.79,915.32 1339.07,913.78"/>
    <poly id="building_97" type="building" color="200,200,200" fill="true" layer="2" shape="1071.75,769.37 1071.34,779.33 1064.42,779.04 1064.85,769.08 1071.75,769.37"/>
    <poly id="building_98" type="building" color="200,200,200" fill="true" layer="2" shape="1218.57,1085.38 1224.77,1085.19 1224.93,1090.47 1218.74,1090.66 1218.57,1085.38"/>
    <poly id="building_99" type="building" color="200,200,200" fill="true" layer="2" shape="1214.17,886.36 1212.95,895.29 1202.50,893.89 1203.73,884.95 1214.17,886.36"/>
    <poly id="building_100" type="building" color="200,200,200" fill="true" layer="2" shape="1065.15,821.24 1072.07,821.14 1072.15,826.71 1065.24,826.81 1065.15,821.24"/>
    <poly id="building_101" type="building" color="200,200,200" fill="true" layer="2" shape="1202.61,963.61 1207.72,964.95 1206.44,969.77 1201.33,968.44 1202.61,963.61"/>
    <poly id="building_102" type="building" color="200,200,200" fill="true" layer="2" shape="1229.15,752.36 1229.66,763.33 1222.88,763.64 1222.38,752.67 1229.15,752.36"/>
    <poly id="building_103" type="building" color="200,200,200" fill="true" layer="2" shape="1418.88,781.11 1412.38,781.19 1412.26,772.10 1418.76,772.02 1418.88,781.11"/>
    <poly id="building_104" type="building" color="200,200,200" fill="true" layer="2" shape="1537.28,1085.59 1537.03,1078.40 1546.92,1078.05 1547.49,1094.47 1534.52,1094.92 1534.19,1085.69 1537.28,1085.59"/>
    <poly id="building_105" type="building" color="200,200,200" fill="true" layer="2" shape="1586.19,687.51 1592.88,697.87 1584.01,703.53 1577.31,693.17 1586.19,687.51"/>
    <poly id="building_106" type="building" color="200,200,200" fill="true" layer="2" shape="1112.75,850.55 1102.41,850.69 1102.17,832.50 1112.50,832.37 1112.75,850.55"/>
    <poly id="building_107" type="building" color="200,200,200" fill="true" layer="2" shape="1170.28,695.94 1178.65,697.22 1176.98,708.11 1168.60,706.84 1170.28,695.94"/>
    <poly id="building_108" type="building" color="200,200,200" fill="true" layer="2" shape="1368.68,1049.09 1369.38,1043.15 1376.10,1043.94 1375.38,1049.88 1368.68,1049.09"/>
    <poly id="building_109" type="building" color="200,200,200" fill="true" layer="2" shape="1502.31,704.07 1507.56,718.61 1500.49,721.12 1495.26,706.58 1502.31,704.07"/>
    <poly id="building_110" type="building" color="200,200,200" fill="true" layer="2" shape="1486.91,709.07 1494.98,707.11 1498.76,722.46 1490.69,724.42 1486.91,709.07"/>
    <poly id="building_111" type="building" color="200,200,200" fill="true" layer="2" shape="1386.57,1040.50 1386.36,1028.92 1396.84,1028.74 1397.04,1040.32 1386.57,1040.50"/>
    <poly id="building_112" type="building" color="200,200,200" fill="true" layer="2" shape="1345.45,1012.40 1346.33,1012.44 1345.82,1025.04 1335.20,1024.61 1336.12,1002.04 1345.86,1002.44 1345.45,1012.40"/>
    <poly id="building_113" type="building" color="200,200,200" fill="true" layer="2" shape="1473.16,915.85 1473.43,923.18 1462.23,923.57 1461.96,916.25 1473.16,915.85"/>
    <poly id="building_114" type="building" color="200,200,200" fill="true" layer="2" shape="1630.19,1129.01 1630.42,1117.14 1640.76,1117.35 1640.53,1129.22 1630.19,1129.01"/>
    <poly id="building_115" type="building" color="200,200,200" fill="true" layer="2" shape="1440.38,855.06 1440.86,870.01 1434.07,870.23 1433.59,855.28 1440.38,855.06"/>
    <poly id="building_116" type="building" color="200,200,200" fill="true" layer="2" shape="1211.17,861.16 1215.30,861.32 1215.05,867.77 1210.92,867.60 1211.17,861.16"/>
    <poly id="building_117" type="building" color="200,200,200" fill="true" layer="2" shape="1264.33,834.61 1264.63,821.71 1268.17,821.79 1267.98,830.00 1280.09,830.27 1279.98,834.97 1264.33,834.61"/>
    <poly id="building_118" type="building" color="200,200,200" fill="true" layer="2" shape="1089.64,739.29 1089.99,731.97 1098.24,732.36 1097.89,739.68 1089.64,739.29"/>
    <poly id="building_119" type="building" color="200,200,200" fill="true" layer="2" shape="1051.55,979.81 1052.47,971.40 1066.49,972.88 1065.59,981.30 1051.55,979.81"/>
    <poly id="building_120" type="building" color="200,200,200" fill="true" layer="2" shape="1123.51,933.40 1122.60,942.11 1113.38,941.18 1114.27,932.47 1123.51,933.40"/>
    <poly id="building_121" type="building" color="200,200,200" fill="true" layer="2" shape="1380.58,837.20 1381.05,823.42 1393.15,823.81 1392.69,837.60 1380.58,837.20"/>
    <poly id="building_122" type="building" color="200,200,200" fill="true" layer="2" shape="1229.08,847.18 1222.29,846.84 1222.99,833.08 1233.01,833.58 1231.91,855.38 1228.67,855.22 1229.08,847.18"/>
    <poly id="building_123" type="building" color="200,200,200" fill="true" layer="2" shape="1301.28,838.76 1303.97,829.54 1309.98,831.28 1307.29,840.49 1301.28,838.76"/>
    <poly id="building_124" type="building" color="200,200,200" fill="true" layer="2" shape="1087.04,725.10 1085.79,730.52 1073.31,727.67 1074.56,722.26 1087.04,725.10"/>
    <poly id="building_125" type="building" color="200,200,200" fill="true" layer="2" shape="1114.64,958.60 1108.78,978.67 1100.32,976.22 1103.81,964.29 1102.44,963.90 1104.81,955.77 1114.64,958.60"/>
    <poly id="building_126" type="building" color="200,200,200" fill="true" layer="2" shape="1436.49,794.83 1442.38,794.61 1442.68,802.52 1436.79,802.74 1436.49,794.83"/>
    <poly id="building_127" type="building" color="200,200,200" fill="true" layer="2" shape="1494.41,870.65 1495.86,884.73 1482.86,886.05 1481.42,871.97 1494.41,870.65"/>
    <poly id="building_128" type="building" color="200,200,200" fill="true" layer="2" shape="1172.57,847.04 1172.56,847.16 1165.20,846.86 1165.71,834.55 1178.81,835.09 1178.30,847.28 1172.57,847.04"/>
    <poly id="building_129" type="building" color="200,200,200" fill="true" layer="2" shape="1343.64,892.10 1344.47,873.64 1354.20,874.08 1353.37,892.54 1343.64,892.10"/>
    <poly id="building_130" type="building" color="200,200,200" fill="true" layer="2" shape="1100.35,895.04 1100.00,883.90 1108.10,883.65 1108.45,894.79 1100.35,895.04"/>
    <poly id="building_131" type="building" color="200,200,200" fill="true" layer="2" shape="1486.57,903.69 1473.74,903.38 1473.98,893.84 1482.24,894.04 1482.17,897.41 1486.73,897.53 1486.57,903.69"/>
    <poly id="building_132" type="building" color="200,200,200" fill="true" layer="2" shape="1154.97,809.20 1163.84,809.00 1164.07,819.85 1155.21,820.05 1154.97,809.20"/>
    <poly id="building_133" type="building" color="200,200,200" fill="true" layer="2" shape="1086.24,1100.91 1085.84,1092.30 1091.73,1092.03 1092.13,1100.64 1086.24,1100.91"/>
    <poly id="building_134" type="building" color="200,200,200" fill="true" layer="2" shape="1294.21,991.11 1277.72,990.18 1278.53,975.85 1295.03,976.78 1294.21,991.11"/>
    <poly id="building_135" type="building" color="200,200,200" fill="true" layer="2" shape="1445.13,1077.47 1445.34,1081.72 1440.92,1081.94 1440.71,1077.69 1445.13,1077.47"/>
    <poly id="building_136" type="building" color="200,200,200" fill="true" layer="2" shape="1143.78,848.73 1137.28,848.84 1137.05,836.23 1143.54,836.11 1143.78,848.73"/>
    <poly id="building_137" type="building" color="200,200,200" fill="true" layer="2" shape="1203.03,1081.51 1211.44,1083.99 1209.58,1090.20 1201.16,1087.71 1203.03,1081.51"/>
    <poly id="building_138" type="building" color="200,200,200" fill="true" layer="2" shape="1351.14,895.17 1354.92,895.68 1354.12,901.58 1350.34,901.09 1351.14,895.17"/>
    <poly id="building_139" type="building" color="200,200,200" fill="true" layer="2" shape="1086.47,978.05 1093.68,978.41 1093.50,982.05 1086.28,981.69 1086.47,978.05"/>
    <poly id="building_140" type="building" color="200,200,200" fill="true" layer="2" shape="1129.83,759.59 1137.80,759.75 1137.65,767.08 1129.68,766.92 1129.83,759.59"/>
    <poly id="building_141" type="building" color="200,200,200" fill="true" layer="2" shape="1164.37,745.85 1175.47,745.81 1175.52,757.83 1164.42,757.88 1164.37,745.85"/>
    <poly id="building_142" type="building" color="200,200,200" fill="true" layer="2" shape="1068.40,933.52 1068.81,922.09 1085.63,922.68 1085.23,934.11 1068.40,933.52"/>
    <poly id="building_143" type="building" color="200,200,200" fill="true" layer="2" shape="1271.70,905.90 1270.35,916.01 1263.95,915.16 1265.31,905.06 1271.70,905.90"/>
    <poly id="building_144" type="building" color="200,200,200" fill="true" layer="2" shape="1052.83,912.98 1052.11,905.12 1058.55,904.54 1059.28,912.39 1052.83,912.98"/>
    <poly id="building_145" type="building" color="200,200,200" fill="true" layer="2" shape="1328.44,947.28 1340.54,947.64 1340.25,957.46 1325.03,957.01 1325.16,952.61 1328.28,952.70 1328.44,947.28"/>
    <poly id="building_146" type="building" color="200,200,200" fill="true" layer="2" shape="1347.54,1046.00 1346.08,1053.20 1339.10,1051.82 1340.56,1044.61 1347.54,1046.00"/>
    <poly id="building_147" type="building" color="200,200,200" fill="true" layer="2" shape="1096.46,730.62 1091.23,729.93 1091.84,725.31 1097.06,726.00 1096.46,730.62"/>
    <poly id="building_148" type="building" color="200,200,200" fill="true" layer="2" shape="1389.49,792.78 1384.05,792.80 1384.01,785.77 1389.45,785.73 1389.49,792.78"/>
    <poly id="building_149" type="building" color="200,200,200" fill="true" layer="2" shape="1493.24,1001.95 1492.05,1009.70 1488.00,1009.09 1489.20,1001.35 1493.24,1001.95"/>
    <poly id="building_150" type="building" color="200,200,200" fill="true" layer="2" shape="1179.16,878.00 1180.51,870.91 1190.51,872.80 1189.14,879.88 1179.16,878.00"/>
    <poly id="building_151" type="building" color="200,200,200" fill="true" layer="2" shape="1504.14,905.00 1506.82,926.68 1494.46,928.19 1491.80,906.51 1504.14,905.00"/>
    <poly id="building_152" type="building" color="200,200,200" fill="true" layer="2" shape="1158.29,897.90 1151.82,894.48 1155.39,887.83 1161.85,891.25 1158.29,897.90"/>
    <poly id="building_153" type="building" color="200,200,200" fill="true" layer="2" shape="1068.90,1061.58 1067.87,1071.46 1060.42,1070.69 1061.45,1060.81 1068.90,1061.58"/>
    <poly id="building_154" type="building" color="200,200,200" fill="true" layer="2" shape="1153.85,787.72 1158.54,788.12 1157.90,795.41 1153.21,795.00 1153.85,787.72"/>
    <poly id="building_155" type="building" color="200,200,200" fill="true" layer="2" shape="1361.28,801.77 1361.01,809.56 1350.51,809.18 1350.79,801.41 1361.28,801.77"/>
    <poly id="building_156" type="building" color="200,200,200" fill="true" layer="2" shape="1319.03,1111.46 1313.14,1111.11 1313.81,1099.99 1319.70,1100.35 1319.03,1111.46"/>
    <poly id="building_157" type="building" color="200,200,200" fill="true" layer="2" shape="1099.69,825.71 1099.91,815.14 1104.34,815.23 1104.12,825.80 1099.69,825.71"/>
    <poly id="building_158" type="building" color="200,200,200" fill="true" layer="2" shape="1199.54,992.19 1197.04,1003.40 1183.10,1000.32 1185.60,989.13 1199.54,992.19"/>
    <poly id="building_159" type="building" color="200,200,200" fill="true" layer="2" shape="1153.24,728.16 1158.84,728.25 1158.66,738.23 1153.05,738.12 1153.24,728.16"/>
    <poly id="building_160" type="building" color="200,200,200" fill="true" layer="2" shape="1339.50,1034.49 1338.27,1038.85 1334.15,1037.70 1333.16,1041.24 1328.77,1040.00 1331.01,1032.12 1339.50,1034.49"/>
    <poly id="building_161" type="building" color="200,200,200" fill="true" layer="2" shape="1490.63,932.13 1484.16,934.52 1482.04,928.86 1479.71,929.71 1477.88,924.83 1486.69,921.57 1490.63,932.13"/>
    <poly id="building_162" type="building" color="200,200,200" fill="true" layer="2" shape="1597.91,933.26 1598.36,926.24 1604.68,926.65 1604.23,933.67 1597.91,933.26"/>
    <poly id="building_163" type="building" color="200,200,200" fill="true" layer="2" shape="1444.06,1094.63 1452.63,1094.55 1452.80,1110.09 1444.23,1110.19 1444.06,1094.63"/>
    <poly id="building_164" type="building" color="200,200,200" fill="true" layer="2" shape="1260.71,796.63 1260.10,819.52 1251.37,819.28 1251.98,796.40 1260.71,796.63"/>
    <poly id="building_165" type="building" color="200,200,200" fill="true" layer="2" shape="1375.04,1054.10 1376.46,1049.37 1383.94,1051.58 1382.53,1056.30 1375.04,1054.10"/>