<?xml version='1.0' encoding='UTF-8'?>
<additional>
  <poly id="building_0" color="160,160,160" layer="1" shape="718086.15,936889.82 718076.52,936878.05 718070.77,936882.69 718070.49,936884.93 718079.13,936895.48 718086.15,936889.82"/>
  <poly id="building_1" color="160,160,160" layer="1" shape="717691.70,937066.74 717778.25,936995.37 717749.54,936961.00 717662.96,937032.35 717691.70,937066.74"/>
  <poly id="building_2" color="160,160,160" layer="1" shape="718450.54,936607.11 718468.67,936597.28 718463.79,936588.40 718445.66,936598.22 718450.54,936607.11"/>
  <poly id="building_3" color="160,160,160" layer="1" shape="717651.23,937185.62 717650.31,937183.69 717646.99,937176.72 717638.84,937180.55 717643.08,937189.45 717651.23,937185.62"/>
  <poly id="building_4" color="160,160,160" layer="1" shape="717642.01,937197.96 717637.67,937190.96 717632.11,937194.36 717630.78,937192.23 717628.63,937193.55 717625.62,937188.72 717613.93,937195.87 717612.46,937193.50 717609.81,937195.12 717619.93,937211.46 717642.01,937197.96"/>
  <poly id="building_5" color="160,160,160" layer="1" shape="717968.85,937223.87 717969.77,937197.30 717940.64,937197.51 717940.81,937223.30 717968.85,937223.87"/>
  <poly id="building_6" color="160,160,160" layer="1" shape="718125.51,936851.98 718114.53,936840.40 718101.40,936852.68 718112.37,936864.26 718125.51,936851.98"/>
  <poly id="building_7" color="160,160,160" layer="1" shape="718049.43,936927.67 718057.04,936921.01 718047.17,936909.89 718039.57,936916.54 718049.43,936927.67"/>
  <poly id="building_8" color="160,160,160" layer="1" shape="717936.76,936817.62 717923.22,936826.29 717939.09,936850.72 717933.09,936854.56 717931.55,936852.18 717928.63,936854.04 717919.66,936840.25 717899.62,936853.09 717910.14,936869.28 717903.61,936873.46 717889.91,936852.36 717904.25,936843.17 717895.82,936830.19 717867.80,936848.15 717899.20,936896.48 717912.79,936887.77 717911.99,936886.53 717919.42,936881.78 717924.48,936889.56 717935.59,936882.44 717930.53,936874.65 717947.10,936864.03 717947.90,936865.27 717961.88,936856.30 717936.76,936817.62"/>
  <poly id="building_9" color="160,160,160" layer="1" shape="717632.09,936643.22 717633.70,936629.71 717627.88,936629.03 717627.32,936633.68 717621.67,936633.01 717620.62,936641.85 717632.09,936643.22"/>
  <poly id="building_10" color="160,160,160" layer="1" shape="717564.48,936578.89 717567.48,936569.51 717554.25,936569.21 717554.04,936578.66 717564.48,936578.89"/>
  <poly id="building_11" color="160,160,160" layer="1" shape="717609.19,936582.39 717610.31,936570.27 717602.37,936569.56 717601.26,936581.67 717609.19,936582.39"/>
  <poly id="building_12" color="160,160,160" layer="1" shape="717812.80,936647.58 717814.17,936638.58 717807.82,936637.62 717807.39,936640.41 717804.38,936639.96 717803.42,936646.15 717812.80,936647.58"/>
  <poly id="building_13" color="160,160,160" layer="1" shape="717749.53,936660.50 717754.35,936660.92 717752.77,936651.09 717742.61,936652.70 717744.00,936661.37 717749.53,936660.50"/>
  <poly id="building_14" color="160,160,160" layer="1" shape="718463.78,936862.81 718463.91,936851.67 718454.04,936851.55 718453.93,936859.44 718454.09,936862.70 718463.78,936862.81"/>
  <poly id="building_15" color="160,160,160" layer="1" shape="718501.04,936677.16 718497.28,936664.88 718491.85,936666.52 718491.84,936670.04 718489.47,936672.09 718491.86,936679.93 718501.04,936677.16"/>
  <poly id="building_16" color="160,160,160" layer="1" shape="718193.69,936929.04 718191.64,936918.50 718173.32,936922.03 718175.37,936932.57 718193.69,936929.04"/>
  <poly id="building_17" color="160,160,160" layer="1" shape="718117.66,936832.25 718116.35,936829.30 718113.39,936832.07 718113.67,936833.40 718117.66,936832.25"/>
  <poly id="building_18" color="160,160,160" layer="1" shape="717738.14,936877.76 717772.32,936875.04 717768.42,936826.89 717734.26,936829.61 717738.14,936877.76"/>
  <poly id="building_19" color="160,160,160" layer="1" shape="717721.42,936791.57 717726.06,936816.07 717776.05,936806.76 717771.42,936782.27 717721.42,936791.57"/>
  <poly id="building_20" color="160,160,160" layer="1" shape="717785.82,936806.33 717910.99,936783.02 717916.20,936810.67 717955.15,936803.41 717945.28,936751.16 717781.18,936781.73 717785.82,936806.33"/>
  <poly id="building_21" color="160,160,160" layer="1" shape="717975.88,936890.42 718006.25,936887.21 717994.69,936779.16 717964.32,936782.36 717975.88,936890.42"/>
  <poly id="building_22" color="160,160,160" layer="1" shape="717946.38,936934.35 717951.15,936931.30 717947.88,936925.80 717942.90,936928.99 717946.38,936934.35"/>
  <poly id="building_23" color="160,160,160" layer="1" shape="717957.38,936927.31 717953.89,936921.94 717951.24,936923.64 717954.52,936929.14 717957.38,936927.31"/>
  <poly id="building_24" color="160,160,160" layer="1" shape="717745.26,936713.09 717745.85,936728.02 717753.98,936727.70 717753.38,936712.76 717745.26,936713.09"/>
  <poly id="building_25" color="160,160,160" layer="1" shape="717780.52,936609.28 717781.03,936622.92 717788.69,936622.65 717788.19,936609.01 717780.52,936609.28"/>
  <poly id="building_26" color="160,160,160" layer="1" shape="717783.38,936704.96 717782.73,936717.26 717791.70,936717.72 717792.36,936705.43 717783.38,936704.96"/>
  <poly id="building_27" color="160,160,160" layer="1" shape="717563.21,936666.96 717575.32,936667.17 717575.53,936654.84 717563.41,936654.64 717563.21,936666.96"/>
  <poly id="building_28" color="160,160,160" layer="1" shape="717593.86,936569.25 717594.20,936564.29 717583.91,936563.58 717583.56,936568.55 717593.86,936569.25"/>
  <poly id="building_29" color="160,160,160" layer="1" shape="717596.38,936661.89 717587.01,936662.73 717587.75,936670.72 717597.11,936669.88 717596.38,936661.89"/>
  <poly id="building_30" color="160,160,160" layer="1" shape="717688.80,936565.08 717703.55,936562.99 717702.19,936553.51 717687.44,936555.60 717688.80,936565.08"/>
  <poly id="building_31" color="160,160,160" layer="1" shape="717582.07,936705.40 717570.93,936702.97 717569.88,936707.74 717581.02,936710.16 717582.07,936705.40"/>
  <poly id="building_32" color="160,160,160" layer="1" shape="717804.77,936699.13 717805.06,936688.86 717798.57,936688.68 717798.27,936698.94 717804.77,936699.13"/>
  <poly id="building_33" color="160,160,160" layer="1" shape="717700.86,936659.58 717701.45,936659.53 717702.28,936668.85 717710.19,936668.15 717708.98,936654.60 717700.48,936655.36 717700.86,936659.58"/>
  <poly id="building_34" color="160,160,160" layer="1" shape="717699.00,936651.27 717692.79,936651.47 717693.33,936667.59 717699.52,936667.39 717699.00,936651.27"/>
  <poly id="building_35" color="160,160,160" layer="1" shape="717543.33,936594.30 717539.49,936594.23 717539.35,936601.12 717543.18,936601.21 717543.33,936594.30"/>
  <poly id="building_36" color="160,160,160" layer="1" shape="717532.52,936708.59 717531.77,936715.84 717537.91,936716.48 717538.66,936709.21 717532.52,936708.59"/>
  <poly id="building_37" color="160,160,160" layer="1" shape="717782.69,936723.87 717789.17,936723.51 717788.87,936718.24 717782.39,936718.62 717782.69,936723.87"/>
  <poly id="building_38" color="160,160,160" layer="1" shape="717770.98,936657.20 717763.15,936657.49 717763.75,936673.31 717771.58,936673.02 717770.98,936657.20"/>
  <poly id="building_39" color="160,160,160" layer="1" shape="717814.96,936651.71 717829.41,936651.17 717828.97,936639.75 717814.52,936640.28 717814.96,936651.71"/>
  <poly id="building_40" color="160,160,160" layer="1" shape="717529.15,936649.44 717528.28,936656.68 717539.06,936657.97 717539.94,936650.74 717529.15,936649.44"/>
  <poly id="building_41" color="160,160,160" layer="1" shape="717821.21,936619.54 717820.94,936607.53 717811.20,936607.74 717811.47,936619.77 717821.21,936619.54"/>
  <poly id="building_42" color="160,160,160" layer="1" shape="717806.08,936709.73 717795.88,936710.00 717796.08,936717.34 717806.28,936717.06 717806.08,936709.73"/>
  <poly id="building_43" color="160,160,160" layer="1" shape="717777.00,936688.98 717766.98,936689.35 717767.50,936703.12 717777.53,936702.74 717777.00,936688.98"/>
  <poly id="building_44" color="160,160,160" layer="1" shape="717661.48,936565.04 717660.59,936574.21 717670.40,936575.15 717671.29,936565.97 717661.48,936565.04"/>
  <poly id="building_45" color="160,160,160" layer="1" shape="717675.82,936565.43 717676.82,936555.25 717663.94,936554.00 717662.94,936564.17 717675.82,936565.43"/>
  <poly id="building_46" color="160,160,160" layer="1" shape="717610.64,936579.90 717619.29,936581.24 717620.74,936572.06 717612.08,936570.73 717610.64,936579.90"/>
  <poly id="building_47" color="160,160,160" layer="1" shape="717698.19,936678.35 717698.45,936691.97 717706.42,936691.83 717706.16,936678.20 717698.19,936678.35"/>
  <poly id="building_48" color="160,160,160" layer="1" shape="717581.41,936575.78 717580.80,936580.70 717584.44,936581.14 717585.05,936576.22 717581.41,936575.78"/>
  <poly id="building_49" color="160,160,160" layer="1" shape="717524.41,936594.23 717524.71,936604.49 717538.88,936604.08 717538.58,936593.83 717524.41,936594.23"/>
  <poly id="building_50" color="160,160,160" layer="1" shape="717658.29,936569.22 717645.68,936568.10 717645.04,936575.09 717657.65,936576.21 717658.29,936569.22"/>
  <poly id="building_51" color="160,160,160" layer="1" shape="717643.88,936722.34 717645.23,936713.14 717633.08,936711.38 717631.73,936720.57 717643.88,936722.34"/>
  <poly id="building_52" color="160,160,160" layer="1" shape="717795.49,936717.69 717795.35,936721.50 717805.51,936721.85 717805.65,936718.05 717795.49,936717.69"/>
  <poly id="building_53" color="160,160,160" layer="1" shape="717646.30,936684.62 717657.53,936687.20 717659.21,936679.95 717647.98,936677.37 717646.30,936684.62"/>
  <poly id="building_54" color="160,160,160" layer="1" shape="717762.78,936643.33 717762.39,936654.18 717771.82,936654.53 717772.23,936643.68 717762.78,936643.33"/>
  <poly id="building_55" color="160,160,160" layer="1" shape="717527.76,936703.51 717534.92,936704.78 717534.35,936707.91 717539.50,936708.83 717538.06,936716.80 717542.37,936717.56 717544.01,936708.46 717542.29,936708.15 717544.83,936694.07 717529.94,936691.40 717527.76,936703.51"/>
  <poly id="building_56" color="160,160,160" layer="1" shape="717784.30,936675.35 717792.72,936675.31 717792.64,936661.80 717784.21,936661.86 717784.30,936675.35"/>
  <poly id="building_57" color="160,160,160" layer="1" shape="717614.72,936678.55 717622.55,936678.88 717622.76,936673.90 717616.93,936673.66 717614.91,936674.05 717614.72,936678.55"/>
  <poly id="building_58" color="160,160,160" layer="1" shape="717638.80,936659.04 717639.26,936670.01 717648.69,936669.63 717648.24,936658.65 717638.80,936659.04"/>
  <poly id="building_59" color="160,160,160" layer="1" shape="717710.23,936558.35 717707.89,936567.94 717715.16,936569.69 717717.49,936560.10 717710.23,936558.35"/>
  <poly id="building_60" color="160,160,160" layer="1" shape="717692.72,936582.87 717693.15,936569.22 717686.96,936569.04 717686.53,936582.69 717692.72,936582.87"/>
  <poly id="building_61" color="160,160,160" layer="1" shape="717788.24,936566.96 717788.44,936581.05 717794.19,936580.97 717794.17,936579.21 717799.49,936579.12 717799.31,936566.81 717788.24,936566.96"/>
  <poly id="building_62" color="160,160,160" layer="1" shape="717822.96,936568.38 717806.45,936567.50 717805.92,936577.45 717822.42,936578.32 717822.96,936568.38"/>
  <poly id="building_63" color="160,160,160" layer="1" shape="717759.19,936589.59 717750.03,936589.51 717749.92,936601.25 717759.08,936601.33 717759.19,936589.59"/>
  <poly id="building_64" color="160,160,160" layer="1" shape="717818.82,936667.52 717804.22,936669.03 717805.32,936679.64 717819.93,936678.13 717818.82,936667.52"/>
  <poly id="building_65" color="160,160,160" layer="1" shape="717536.04,936606.97 717536.16,936610.04 717527.74,936610.36 717527.96,936615.79 717538.87,936615.36 717538.85,936614.78 717544.16,936614.57 717543.84,936606.66 717536.04,936606.97"/>
  <poly id="building_66" color="160,160,160" layer="1" shape="717706.42,936612.60 717703.16,936618.87 717714.50,936624.69 717717.77,936618.42 717706.42,936612.60"/>
  <poly id="building_67" color="160,160,160" layer="1" shape="717718.93,936598.96 717731.04,936598.76 717730.88,936588.80 717718.76,936588.99 717718.93,936598.96"/>
  <poly id="building_68" color="160,160,160" layer="1" shape="717664.69,936613.60 717674.78,936614.62 717676.03,936602.28 717665.95,936601.27 717664.69,936613.60"/>
  <poly id="building_69" color="160,160,160" layer="1" shape="717719.70,936703.62 717719.88,936710.81 717727.26,936710.63 717727.08,936703.42 717719.70,936703.62"/>
  <poly id="building_70" color="160,160,160" layer="1" shape="717756.94,936584.84 717763.72,936584.62 717763.18,936568.20 717756.39,936568.42 717756.94,936584.84"/>
  <poly id="building_71" color="160,160,160" layer="1" shape="717568.48,936627.93 717576.74,936628.28 717577.43,936612.75 717569.17,936612.40 717568.48,936627.93"/>
  <poly id="building_72" color="160,160,160" layer="1" shape="717540.12,936587.82 717546.02,936587.76 717545.91,936575.73 717540.00,936575.78 717540.12,936587.82"/>
  <poly id="building_73" color="160,160,160" layer="1" shape="717599.80,936597.96 717599.50,936607.34 717612.19,936607.75 717612.50,936598.37 717599.80,936597.96"/>
  <poly id="building_74" color="160,160,160" layer="1" shape="717789.53,936617.13 717797.20,936617.35 717797.49,936607.68 717789.82,936607.45 717789.53,936617.13"/>
  <poly id="building_75" color="160,160,160" layer="1" shape="717535.13,936564.90 717535.25,936568.86 717542.92,936568.65 717542.81,936564.70 717535.13,936564.90"/>
  <poly id="building_76" color="160,160,160" layer="1" shape="717610.96,936642.79 717611.45,936631.22 717594.21,936630.49 717593.72,936642.06 717610.96,936642.79"/>
  <poly id="building_77" color="160,160,160" layer="1" shape="717637.74,936605.67 717638.05,936598.78 717623.59,936598.15 717623.29,936605.04 717637.74,936605.67"/>
  <poly id="building_78" color="160,160,160" layer="1" shape="717544.20,936601.79 717547.69,936601.37 717546.86,936594.43 717543.36,936594.85 717544.20,936601.79"/>
  <poly id="building_79" color="160,160,160" layer="1" shape="717543.71,936569.17 717539.74,936569.33 717539.96,936574.89 717543.93,936574.74 717543.71,936569.17"/>
  <poly id="building_80" color="160,160,160" layer="1" shape="717847.20,936647.49 717858.42,936647.11 717857.80,936628.65 717851.76,936628.85 717851.96,936634.71 717846.78,936634.88 717847.20,936647.49"/>
  <poly id="building_81" color="160,160,160" layer="1" shape="717573.76,936677.43 717572.99,936684.70 717580.16,936685.45 717580.94,936678.19 717573.76,936677.43"/>
  <poly id="building_82" color="160,160,160" layer="1" shape="717554.72,936705.94 717562.28,936706.87 717563.40,936697.90 717555.83,936696.98 717554.72,936705.94"/>
  <poly id="building_83" color="160,160,160" layer="1" shape="717787.65,936596.13 717791.24,936595.20 717789.73,936589.44 717786.15,936590.36 717787.65,936596.13"/>
  <poly id="building_84" color="160,160,160" layer="1" shape="717564.41,936697.06 717564.67,936701.44 717568.63,936701.21 717568.38,936696.83 717564.41,936697.06"/>
  <poly id="building_85" color="160,160,160" layer="1" shape="717686.75,936610.30 717698.56,936610.01 717698.25,936597.99 717686.45,936598.28 717686.75,936610.30"/>
  <poly id="building_86" color="160,160,160" layer="1" shape="717846.48,936595.18 717860.94,936594.85 717860.76,936587.22 717846.30,936587.56 717846.48,936595.18"/>
  <poly id="building_87" color="160,160,160" layer="1" shape="717691.66,936667.92 717691.29,936667.90 717692.09,936652.68 717683.25,936652.23 717682.57,936665.27 717682.24,936665.25 717681.96,936670.51 717683.66,936670.60 717691.53,936670.61 717691.66,936667.92"/>
  <poly id="building_88" color="160,160,160" layer="1" shape="717621.43,936606.14 717621.64,936617.87 717635.22,936617.62 717635.01,936605.89 717621.43,936606.14"/>
  <poly id="building_89" color="160,160,160" layer="1" shape="717662.54,936705.13 717664.57,936697.74 717656.86,936695.64 717654.83,936703.02 717662.54,936705.13"/>
  <poly id="building_90" color="160,160,160" layer="1" shape="717662.11,936717.02 717655.33,936733.36 717669.13,936739.01 717675.91,936722.68 717662.11,936717.02"/>
  <poly id="building_91" color="160,160,160" layer="1" shape="717586.66,936678.34 717586.12,936694.47 717605.90,936695.11 717606.23,936684.86 717599.15,936684.62 717599.35,936678.76 717586.66,936678.34"/>
  <poly id="building_92" color="160,160,160" layer="1" shape="717549.02,936564.22 717549.24,936556.46 717536.12,936556.07 717535.89,936563.84 717549.02,936564.22"/>
  <poly id="building_93" color="160,160,160" layer="1" shape="717774.01,936579.69 717782.28,936579.95 717782.67,936567.63 717774.40,936567.37 717774.01,936579.69"/>
  <poly id="building_94" color="160,160,160" layer="1" shape="717769.55,936611.67 717765.68,936609.08 717765.96,936620.52 717775.71,936620.27 717775.42,936608.83 717769.55,936611.67"/>
  <poly id="building_95" color="160,160,160" layer="1" shape="717763.39,936589.66 717763.69,936598.74 717777.26,936598.29 717776.96,936589.21 717763.39,936589.66"/>
  <poly id="building_96" color="160,160,160" layer="1" shape="717830.21,936611.77 717836.29,936610.89 717835.50,936605.48 717829.38,936606.04 717830.21,936611.77"/>
  <poly id="building_97" color="160,160,160" layer="1" shape="717830.84,936576.42 717841.16,936576.64 717841.39,936566.49 717831.05,936566.26 717830.84,936576.42"/>
  <poly id="building_98" color="160,160,160" layer="1" shape="717655.86,936606.70 717655.67,936594.96 717647.11,936595.10 717647.30,936606.83 717655.86,936606.70"/>
  <poly id="building_99" color="160,160,160" layer="1" shape="717683.72,936629.90 717683.55,936638.69 717692.42,936638.86 717692.57,936630.05 717683.72,936629.90"/>
  <poly id="building_100" color="160,160,160" layer="1" shape="717554.84,936584.97 717567.82,936584.76 717567.75,936580.07 717554.75,936580.28 717554.84,936584.97"/>
  <poly id="building_101" color="160,160,160" layer="1" shape="717687.41,936680.17 717687.27,936680.17 717687.32,936690.00 717694.70,936689.97 717694.64,936677.94 717694.64,936677.00 717694.86,936674.50 717692.15,936674.61 717692.07,936674.62 717687.38,936674.60 717687.41,936680.17"/>
  <poly id="building_102" color="160,160,160" layer="1" shape="717640.60,936682.21 717640.47,936675.76 717629.84,936675.98 717629.97,936682.43 717640.60,936682.21"/>
  <poly id="building_103" color="160,160,160" layer="1" shape="717841.23,936643.40 717841.11,936631.95 717829.89,936632.07 717830.01,936643.50 717841.23,936643.40"/>
  <poly id="building_104" color="160,160,160" layer="1" shape="717717.80,936678.80 717735.35,936678.39 717735.22,936672.82 717717.66,936673.23 717717.80,936678.80"/>
  <poly id="building_105" color="160,160,160" layer="1" shape="717742.27,936680.56 717743.12,936689.87 717755.43,936688.77 717754.57,936679.46 717742.27,936680.56"/>
  <poly id="building_106" color="160,160,160" layer="1" shape="717550.30,936633.58 717550.77,936625.08 717544.28,936624.74 717543.82,936633.22 717550.30,936633.58"/>
  <poly id="building_107" color="160,160,160" layer="1" shape="717596.27,936576.42 717596.37,936571.14 717591.35,936571.04 717591.25,936576.32 717596.27,936576.42"/>
  <poly id="building_108" color="160,160,160" layer="1" shape="717755.83,936608.43 717755.09,936626.18 717763.35,936626.52 717764.09,936608.77 717755.83,936608.43"/>
  <poly id="building_109" color="160,160,160" layer="1" shape="717563.59,936628.63 717563.80,936636.11 717556.72,936636.32 717556.86,936641.14 717573.81,936640.68 717573.63,936633.93 717569.95,936634.03 717569.79,936628.46 717563.59,936628.63"/>
  <poly id="building_110" color="160,160,160" layer="1" shape="717561.42,936709.14 717552.73,936708.81 717552.41,936717.32 717548.58,936717.17 717548.47,936720.10 717561.00,936720.57 717561.42,936709.14"/>
  <poly id="building_111" color="160,160,160" layer="1" shape="717739.89,936634.68 717741.10,936640.29 717747.74,936638.87 717746.52,936633.27 717739.89,936634.68"/>
  <poly id="building_112" color="160,160,160" layer="1" shape="717605.20,936556.93 717604.74,936568.07 717621.85,936568.77 717622.31,936557.64 717605.20,936556.93"/>
  <poly id="building_113" color="160,160,160" layer="1" shape="717843.18,936665.53 717851.71,936666.03 717852.22,936657.55 717843.62,936657.90 717843.18,936665.53"/>
  <poly id="building_114" color="160,160,160" layer="1" shape="717698.49,936636.67 717708.51,936637.21 717709.11,936625.92 717699.60,936625.42 717699.03,936626.66 717698.49,936636.67"/>
  <poly id="building_115" color="160,160,160" layer="1" shape="718102.16,936626.57 718102.36,936630.96 718106.49,936630.77 718106.28,936626.38 718102.16,936626.57"/>
  <poly id="building_116" color="160,160,160" layer="1" shape="717616.85,936760.64 717617.44,936770.29 717624.67,936769.85 717624.09,936760.21 717616.85,936760.64"/>
  <poly id="building_117" color="160,160,160" layer="1" shape="717966.19,936714.11 717974.66,936713.27 717973.75,936704.09 717960.71,936705.38 717962.20,936720.18 717966.75,936719.74 717966.19,936714.11"/>
  <poly id="building_118" color="160,160,160" layer="1" shape="718341.73,936782.76 718355.62,936782.60 718355.51,936773.38 718341.63,936773.53 718341.73,936782.76"/>
  <poly id="building_119" color="160,160,160" layer="1" shape="718369.97,936693.63 718365.01,936694.18 718366.02,936703.28 718370.98,936702.74 718369.97,936693.63"/>
  <poly id="building_120" color="160,160,160" layer="1" shape="718166.50,936666.15 718168.62,936673.45 718173.95,936671.92 718171.82,936664.61 718166.50,936666.15"/>
  <poly id="building_121" color="160,160,160" layer="1" shape="717919.28,936590.23 717919.51,936601.37 717931.03,936601.14 717930.80,936589.99 717919.28,936590.23"/>
  <poly id="building_122" color="160,160,160" layer="1" shape="718398.30,936791.71 718410.17,936794.86 718413.93,936780.87 718402.06,936777.71 718398.30,936791.71"/>
  <poly id="building_123" color="160,160,160" layer="1" shape="717913.89,936567.13 717902.67,936566.74 717902.26,936578.47 717913.48,936578.85 717913.89,936567.13"/>
  <poly id="building_124" color="160,160,160" layer="1" shape="718464.48,936659.48 718464.87,936651.57 718460.16,936651.34 718459.76,936659.25 718464.48,936659.48"/>
  <poly id="building_125" color="160,160,160" layer="1" shape="718160.26,936654.75 718164.04,936671.81 718166.86,936671.20 718165.43,936664.77 718172.46,936663.24 718170.12,936652.60 718160.26,936654.75"/>
  <poly id="building_126" color="160,160,160" layer="1" shape="717979.97,936715.52 717989.11,936715.24 717988.65,936700.00 717980.07,936700.26 717980.03,936700.28 717979.54,936701.39 717979.97,936715.52"/>
  <poly id="building_127" color="160,160,160" layer="1" shape="718253.26,936707.81 718247.49,936708.65 718248.16,936713.25 718253.95,936712.40 718253.26,936707.81"/>
  <poly id="building_128" color="160,160,160" layer="1" shape="718326.18,936782.95 718335.03,936782.73 718334.59,936765.60 718325.74,936765.82 718326.18,936782.95"/>
  <poly id="building_129" color="160,160,160" layer="1" shape="718118.85,936766.68 718108.05,936771.80 718111.91,936779.82 718122.71,936774.70 718118.85,936766.68"/>
  <poly id="building_130" color="160,160,160" layer="1" shape="717908.12,936679.95 717908.00,936704.01 717915.39,936704.05 717915.35,936711.68 717923.62,936711.72 717923.73,936689.79 717922.66,936680.03 717908.12,936679.95"/>
  <poly id="building_131" color="160,160,160" layer="1" shape="718114.39,936733.33 718119.40,936733.05 718118.97,936725.44 718113.96,936725.73 718114.39,936733.33"/>
  <poly id="building_132" color="160,160,160" layer="1" shape="718419.14,936791.98 718431.98,936794.74 718433.99,936785.47 718421.15,936782.72 718419.14,936791.98"/>
  <poly id="building_133" color="160,160,160" layer="1" shape="718403.74,936742.52 718404.20,936758.19 718412.76,936757.94 718412.30,936742.28 718403.74,936742.52"/>
  <poly id="building_134" color="160,160,160" layer="1" shape="717880.55,936722.98 717880.87,936736.35 717887.95,936736.18 717887.64,936722.81 717880.55,936722.98"/>
  <poly id="building_135" color="160,160,160" layer="1" shape="717867.93,936753.41 717881.39,936753.87 717881.63,936746.42 717879.41,936746.35 717879.61,936740.48 717868.40,936740.11 717867.93,936753.41"/>
  <poly id="building_136" color="160,160,160" layer="1" shape="718177.39,936732.34 718170.77,936732.12 718170.03,936753.93 718176.65,936754.15 718177.39,936732.34"/>
  <poly id="building_137" color="160,160,160" layer="1" shape="718326.52,936581.35 718325.98,936592.78 718336.89,936593.28 718337.42,936581.85 718326.52,936581.35"/>
  <poly id="building_138" color="160,160,160" layer="1" shape="717914.14,936737.31 717926.65,936736.88 717926.24,936724.87 717913.73,936725.29 717914.14,936737.31"/>
  <poly id="building_139" color="160,160,160" layer="1" shape="718112.24,936660.65 718117.40,936660.71 718117.61,936643.80 718112.15,936643.74 718112.06,936650.96 718103.80,936650.86 718103.65,936663.00 718112.22,936663.11 718112.24,936660.65"/>
  <poly id="building_140" color="160,160,160" layer="1" shape="717748.70,936735.47 717749.34,936741.27 717744.39,936741.81 717745.74,936754.11 717751.41,936753.49 717750.91,936749.02 717755.87,936748.48 717754.38,936734.86 717748.70,936735.47"/>
  <poly id="building_141" color="160,160,160" layer="1" shape="718141.10,936660.55 718142.04,936666.56 718144.93,936666.11 718143.99,936660.10 718141.10,936660.55"/>
  <poly id="building_142" color="160,160,160" layer="1" shape="718189.63,936728.51 718190.80,936736.56 718197.45,936735.61 718198.03,936739.63 718201.34,936739.16 718199.60,936727.09 718189.63,936728.51"/>
  <poly id="building_143" color="160,160,160" layer="1" shape="717986.87,936663.90 717987.51,936674.13 717994.87,936673.67 717994.22,936663.44 717986.87,936663.90"/>
  <poly id="building_144" color="160,160,160" layer="1" shape="718000.10,936649.96 718000.41,936660.80 718005.14,936660.67 718004.84,936650.06 718003.83,936649.84 718000.10,936649.96"/>
  <poly id="building_145" color="160,160,160" layer="1" shape="718323.36,936570.28 718334.72,936569.95 718334.52,936563.50 718323.16,936563.84 718323.36,936570.28"/>
  <poly id="building_146" color="160,160,160" layer="1" shape="717773.82,936736.25 717773.69,936746.10 717779.60,936746.17 717779.73,936736.32 717773.82,936736.25"/>
  <poly id="building_147" color="160,160,160" layer="1" shape="717899.91,936608.58 717900.32,936621.78 717910.36,936621.48 717909.95,936608.29 717899.91,936608.58"/>
  <poly id="building_148" color="160,160,160" layer="1" shape="718327.88,936658.15 718318.06,936661.98 718323.07,936674.67 718332.89,936670.83 718327.88,936658.15"/>
  <poly id="building_149" color="160,160,160" layer="1" shape="718294.01,936670.44 718304.93,936670.22 718304.63,936655.83 718297.84,936655.98 718298.00,936663.60 718294.29,936663.68 718293.89,936664.78 718294.01,936670.44"/>
  <poly id="building_150" color="160,160,160" layer="1" shape="718179.17,936601.81 718172.26,936601.32 718171.57,936610.96 718178.48,936611.45 718179.17,936601.81"/>
  <poly id="building_151" color="160,160,160" layer="1" shape="718030.15,936720.32 718034.22,936719.37 718033.28,936715.41 718029.39,936717.11 718030.15,936720.32"/>
  <poly id="building_152" color="160,160,160" layer="1" shape="718142.75,936774.30 718137.90,936774.79 718138.62,936782.05 718143.46,936781.57 718142.75,936774.30"/>
  <poly id="building_153" color="160,160,160" layer="1" shape="718297.34,936590.49 718307.38,936590.80 718307.80,936577.49 718297.76,936577.17 718297.34,936590.49"/>
  <poly id="building_154" color="160,160,160" layer="1" shape="718232.04,936646.69 718241.79,936646.59 718241.66,936634.85 718231.92,936634.95 718232.04,936646.69"/>
  <poly id="building_155" color="160,160,160" layer="1" shape="718176.88,936708.68 718166.71,936708.87 718167.14,936731.56 718177.30,936731.38 718176.88,936708.68"/>
  <poly id="building_156" color="160,160,160" layer="1" shape="718475.52,936695.90 718464.62,936696.38 718465.01,936705.17 718475.92,936704.68 718475.52,936695.90"/>
  <poly id="building_157" color="160,160,160" layer="1" shape="718520.11,936664.40 718529.23,936665.78 718530.50,936657.46 718521.39,936656.08 718520.11,936664.40"/>
  <poly id="building_158" color="160,160,160" layer="1" shape="718287.11,936610.87 718286.51,936625.70 718302.28,936626.33 718302.99,936608.87 718297.68,936608.65 718297.57,936611.28 718287.11,936610.87"/>
  <poly id="building_159" color="160,160,160" layer="1" shape="718411.33,936605.86 718410.32,936618.10 718408.28,936617.93 718407.75,936624.35 718421.40,936625.47 718423.20,936603.72 718411.87,936602.17 718411.33,936605.86"/>
  <poly id="building_160" color="160,160,160" layer="1" shape="717976.69,936598.39 717989.07,936597.99 717988.70,936586.56 717976.30,936586.96 717976.69,936598.39"/>
  <poly id="building_161" color="160,160,160" layer="1" shape="718058.99,936689.68 718062.30,936705.72 718074.07,936703.32 718070.76,936687.29 718058.99,936689.68"/>
  <poly id="building_162" color="160,160,160" layer="1" shape="718388.22,936637.92 718398.82,936638.44 718399.37,936627.60 718388.76,936627.08 718388.22,936637.92"/>
  <poly id="building_163" color="160,160,160" layer="1" shape="718368.73,936786.64 718368.26,936768.28 718356.57,936768.58 718357.05,936786.93 718368.73,936786.64"/>
  <poly id="building_164" color="160,160,160" layer="1" shape="718129.06,936741.86 718129.25,936733.06 718124.82,936732.97 718124.63,936741.78 718129.06,936741.86"/>
  <poly id="building_165" color="160,160,160" layer="1" shape="718357.67,936754.09 718361.67,936754.00 718361.54,936748.26 718364.79,936748.19 718363.92,936708.89 718356.68,936709.04 718357.67,936754.09"/>
  <poly id="building_166" color="160,160,160" layer="1" shape="718198.61,936694.90 718192.12,936694.69 718191.83,936703.29 718198.33,936703.51 718198.61,936694.90"/>
  <poly id="building_167" color="160,160,160" layer="1" shape="718340.58,936592.81 718346.78,936592.90 718346.90,936584.69 718340.70,936584.60 718340.58,936592.81"/>