<additional>
    <poly id="building_0" type="building" color="200,200,200" fill="true" layer="2" shape="2469.62,350.98 2483.50,351.81 2485.62,338.30 2470.21,337.70 2469.92,344.86 2469.64,347.40 2469.62,350.98"/>
    <poly id="building_1" type="building" color="200,200,200" fill="true" layer="2" shape="2092.53,599.00 2114.15,599.30 2116.67,567.79 2120.20,538.03 2097.59,537.00 2095.00,565.94 2093.96,589.27 2092.53,599.00"/>
    <poly id="building_2" type="building" color="200,200,200" fill="true" layer="2" shape="1601.57,1506.26 1602.63,1527.01 1634.74,1525.40 1634.32,1517.25 1631.51,1517.40 1631.05,1508.62 1628.49,1508.75 1628.30,1504.91 1601.57,1506.26"/>
    <poly id="building_3" type="building" color="200,200,200" fill="true" layer="2" shape="1787.32,1163.30 1785.02,1152.01 1821.96,1144.41 1822.22,1149.40 1827.40,1147.95 1827.91,1134.32 1834.26,1134.50 1833.58,1151.80 1830.03,1152.81 1828.82,1159.70 1812.57,1162.41 1811.69,1159.90 1787.32,1163.30"/>
    <poly id="building_4" type="building" color="200,200,200" fill="true" layer="2" shape="1579.24,1291.80 1593.01,1305.79 1616.85,1287.53 1623.83,1295.50 1632.63,1287.61 1625.47,1278.28 1638.00,1264.80 1644.85,1257.09 1627.01,1240.76 1607.64,1259.62 1604.92,1257.09 1594.75,1266.33 1599.99,1271.19 1579.24,1291.80"/>
    <poly id="building_5" type="building" color="200,200,200" fill="true" layer="2" shape="1645.21,1217.25 1665.19,1201.91 1675.27,1215.36 1657.22,1230.07 1645.21,1217.25"/>
    <poly id="building_6" type="building" color="200,200,200" fill="true" layer="2" shape="1539.47,1353.65 1547.26,1328.17 1572.63,1333.28 1569.84,1358.48 1539.47,1353.65"/>
    <poly id="building_7" type="building" color="200,200,200" fill="true" layer="2" shape="1570.41,1394.46 1571.40,1372.70 1528.01,1372.83 1528.28,1395.66 1549.92,1396.15 1570.41,1394.46"/>
    <poly id="building_8" type="building" color="200,200,200" fill="true" layer="2" shape="1705.76,1173.91 1714.94,1166.87 1729.77,1187.49 1731.78,1191.21 1737.10,1213.13 1733.87,1214.80 1736.74,1217.35 1734.17,1224.75 1718.27,1216.75 1723.56,1209.70 1724.24,1208.18 1720.41,1195.20 1720.08,1193.01 1705.76,1173.91"/>
    <poly id="building_9" type="building" color="200,200,200" fill="true" layer="2" shape="1682.80,1187.10 1690.46,1181.41 1701.73,1200.50 1694.59,1204.50 1682.80,1187.10"/>
    <poly id="building_10" type="building" color="200,200,200" fill="true" layer="2" shape="1693.77,1181.17 1698.87,1189.10 1707.13,1185.32 1701.51,1176.10 1693.77,1181.17"/>
    <poly id="building_11" type="building" color="200,200,200" fill="true" layer="2" shape="1675.48,1192.83 1680.89,1188.51 1692.38,1204.39 1687.48,1207.43 1682.62,1202.31 1675.48,1192.83"/>
    <poly id="building_12" type="building" color="200,200,200" fill="true" layer="2" shape="1578.52,1350.85 1581.79,1323.11 1594.44,1324.60 1590.92,1352.08 1578.52,1350.85"/>
    <poly id="building_13" type="building" color="200,200,200" fill="true" layer="2" shape="1983.24,1453.40 1988.47,1453.59 1989.27,1432.12 1971.77,1431.47 1970.96,1453.07 1978.10,1453.32 1978.02,1455.84 1983.14,1456.03 1983.24,1453.40"/>
    <poly id="building_14" type="building" color="200,200,200" fill="true" layer="2" shape="1446.91,1698.38 1439.65,1671.94 1484.00,1658.37 1486.47,1666.60 1493.27,1665.02 1499.21,1685.86 1446.91,1698.38"/>
    <poly id="building_15" type="building" color="200,200,200" fill="true" layer="2" shape="1745.74,1177.50 1752.72,1175.02 1757.47,1152.39 1739.06,1161.32 1741.57,1167.42 1745.74,1177.50"/>
    <poly id="building_16" type="building" color="200,200,200" fill="true" layer="2" shape="1857.49,1136.17 1871.65,1140.94 1866.27,1153.53 1858.56,1150.57 1852.71,1148.33 1844.46,1146.23 1844.34,1140.81 1847.30,1138.77 1857.49,1136.17"/>
    <poly id="building_17" type="building" color="200,200,200" fill="true" layer="2" shape="1842.74,1134.20 1857.53,1129.28 1852.58,1114.75 1844.00,1116.75 1844.87,1122.04 1842.50,1123.49 1842.47,1129.51 1842.74,1134.20"/>
    <poly id="building_18" type="building" color="200,200,200" fill="true" layer="2" shape="1857.53,1129.28 1864.48,1126.68 1858.79,1113.02 1852.58,1114.75 1857.53,1129.28"/>
    <poly id="building_19" type="building" color="200,200,200" fill="true" layer="2" shape="1765.62,1145.16 1761.48,1131.86 1777.44,1125.86 1783.83,1147.15 1767.36,1150.22 1766.12,1147.80 1765.53,1146.69 1765.62,1145.16"/>
    <poly id="building_20" type="building" color="200,200,200" fill="true" layer="2" shape="1915.16,1092.80 1927.48,1116.09 1936.89,1111.99 1926.78,1086.22 1915.16,1092.80"/>
    <poly id="building_21" type="building" color="200,200,200" fill="true" layer="2" shape="1868.22,1131.56 1889.24,1124.30 1885.04,1106.86 1859.86,1113.59 1868.22,1131.56"/>
    <poly id="building_22" type="building" color="200,200,200" fill="true" layer="2" shape="1971.72,1132.58 1986.48,1129.86 1974.47,1070.69 1957.54,1077.43 1960.57,1088.84 1964.13,1104.12 1971.72,1132.58"/>
    <poly id="building_23" type="building" color="200,200,200" fill="true" layer="2" shape="2021.69,1035.70 2027.49,1032.41 2024.72,1024.89 2016.98,1029.21 2020.12,1032.37 2021.69,1035.70"/>
    <poly id="building_24" type="building" color="200,200,200" fill="true" layer="2" shape="2022.35,1074.47 2011.61,1044.08 2025.17,1035.95 2027.16,1061.77 2040.31,1062.87 2048.85,1075.47 2022.35,1074.47"/>
    <poly id="building_25" type="building" color="200,200,200" fill="true" layer="2" shape="2058.28,1061.05 2055.61,1035.96 2066.84,1033.23 2075.12,1058.93 2073.95,1058.63 2058.28,1061.05"/>
    <poly id="residential_26" type="residential" color="220,220,220" fill="true" layer="-1" shape="2074.71,1052.92 2090.09,1047.86 2079.58,1022.00 2073.87,1012.00 2060.27,1016.62 2061.57,1022.35 2074.71,1052.92"/>
    <poly id="building_27" type="building" color="200,200,200" fill="true" layer="2" shape="2106.49,1003.63 2115.06,1001.60 2112.07,993.91 2109.38,989.23 2103.31,992.42 2106.49,1003.63"/>
    <poly id="building_28" type="building" color="200,200,200" fill="true" layer="2" shape="2112.29,992.87 2107.75,982.27 2129.77,980.62 2131.31,987.89 2124.20,990.03 2112.29,992.87"/>
    <poly id="building_29" type="building" color="200,200,200" fill="true" layer="2" shape="2085.96,993.30 2084.73,990.95 2091.84,983.71 2096.78,988.29 2089.42,995.42 2088.05,994.91 2085.96,993.30"/>
    <poly id="building_30" type="building" color="200,200,200" fill="true" layer="2" shape="2091.71,982.23 2096.83,977.69 2100.65,981.90 2095.06,984.71 2094.07,983.97 2091.71,982.23"/>
    <poly id="building_31" type="building" color="200,200,200" fill="true" layer="2" shape="2140.67,964.20 2140.42,952.77 2169.94,953.72 2167.90,963.68 2140.67,964.20"/>
    <poly id="building_32" type="building" color="200,200,200" fill="true" layer="2" shape="2015.37,969.91 2029.24,968.76 2029.15,951.49 2015.63,952.65 2014.21,953.86 2014.00,961.70 2015.37,969.91"/>
    <poly id="building_33" type="building" color="200,200,200" fill="true" layer="2" shape="1989.55,937.35 1990.30,924.62 2000.69,919.10 2013.86,920.38 2012.71,939.55 1989.55,937.35"/>
    <poly id="building_34" type="building" color="200,200,200" fill="true" layer="2" shape="1969.78,967.92 1985.72,968.73 1987.72,922.84 1968.98,921.14 1969.92,939.18 1969.78,967.92"/>
    <poly id="building_35" type="building" color="200,200,200" fill="true" layer="2" shape="1953.22,973.27 1963.41,972.46 1968.88,972.02 1968.29,941.22 1951.16,941.29 1953.22,973.27"/>
    <poly id="building_36" type="building" color="200,200,200" fill="true" layer="2" shape="1922.11,971.17 1939.13,971.60 1940.62,955.39 1920.96,955.65 1922.11,971.17"/>
    <poly id="building_37" type="building" color="200,200,200" fill="true" layer="2" shape="1887.62,974.27 1889.77,974.85 1892.34,975.17 1892.05,943.79 1888.36,948.05 1887.77,958.89 1888.33,972.24 1887.62,974.27"/>
    <poly id="building_38" type="building" color="200,200,200" fill="true" layer="2" shape="1856.04,973.09 1856.13,953.59 1867.80,952.32 1867.10,975.19 1856.04,973.09"/>
    <poly id="building_39" type="building" color="200,200,200" fill="true" layer="2" shape="1846.77,936.53 1857.43,936.18 1856.80,922.30 1846.99,922.57 1846.77,936.53"/>
    <poly id="building_40" type="building" color="200,200,200" fill="true" layer="2" shape="1831.48,953.47 1844.48,954.27 1846.77,936.53 1831.28,934.99 1831.48,953.47"/>
    <poly id="building_41" type="building" color="200,200,200" fill="true" layer="2" shape="1859.51,927.65 1866.74,927.54 1866.54,922.56 1866.34,917.56 1857.04,917.51 1859.51,927.65"/>
    <poly id="building_42" type="building" color="200,200,200" fill="true" layer="2" shape="1814.90,963.07 1820.37,964.12 1821.63,946.52 1814.40,945.90 1814.90,963.07"/>
    <poly id="building_43" type="building" color="200,200,200" fill="true" layer="2" shape="1800.69,959.79 1808.37,959.78 1808.40,938.47 1800.71,937.93 1800.69,959.79"/>
    <poly id="building_44" type="building" color="200,200,200" fill="true" layer="2" shape="1793.52,960.33 1798.09,960.20 1799.06,943.05 1794.78,943.62 1793.52,960.33"/>
    <poly id="building_45" type="building" color="200,200,200" fill="true" layer="2" shape="1930.19,1054.76 1926.86,1040.22 1952.87,1034.63 1955.78,1044.46 1930.19,1054.76"/>
    <poly id="building_46" type="building" color="200,200,200" fill="true" layer="2" shape="1893.35,1072.69 1918.64,1063.72 1922.19,1060.22 1912.74,1030.84 1887.03,1035.56 1893.35,1072.69"/>
    <poly id="building_47" type="building" color="200,200,200" fill="true" layer="2" shape="1879.89,1077.90 1883.74,1077.92 1891.12,1075.02 1889.85,1062.55 1878.04,1062.35 1879.89,1077.90"/>
    <poly id="building_48" type="building" color="200,200,200" fill="true" layer="2" shape="1868.81,1081.08 1873.98,1079.77 1877.97,1078.33 1876.27,1064.54 1865.33,1067.28 1868.81,1081.08"/>
    <poly id="building_49" type="building" color="200,200,200" fill="true" layer="2" shape="1852.51,1061.34 1867.87,1061.42 1867.99,1034.88 1865.66,1034.94 1852.79,1035.25 1852.51,1061.34"/>
    <poly id="building_50" type="building" color="200,200,200" fill="true" layer="2" shape="1853.83,1034.37 1865.66,1034.94 1866.44,1021.24 1854.04,1021.47 1853.83,1034.37"/>
    <poly id="building_51" type="building" color="200,200,200" fill="true" layer="2" shape="1837.45,1031.36 1847.88,1032.24 1848.37,1017.10 1838.55,1017.26 1837.45,1031.36"/>
    <poly id="building_52" type="building" color="200,200,200" fill="true" layer="2" shape="1840.88,1072.18 1851.12,1070.25 1850.68,1054.60 1838.67,1053.81 1840.88,1072.18"/>
    <poly id="building_53" type="building" color="200,200,200" fill="true" layer="2" shape="1839.94,1051.44 1849.11,1052.72 1848.89,1034.58 1837.09,1034.10 1836.39,1050.90 1839.94,1051.44"/>
    <poly id="building_54" type="building" color="200,200,200" fill="true" layer="2" shape="1838.76,1015.61 1843.79,1015.44 1845.91,1010.40 1838.35,1009.86 1838.76,1015.61"/>
    <poly id="building_55" type="building" color="200,200,200" fill="true" layer="2" shape="1890.88,1011.10 1900.32,1011.51 1900.42,994.71 1884.91,994.00 1883.72,1003.05 1891.25,1003.28 1891.15,1006.78 1890.88,1011.10"/>
    <poly id="building_56" type="building" color="200,200,200" fill="true" layer="2" shape="1869.81,1005.80 1870.39,1013.32 1872.19,1014.51 1878.71,1013.61 1877.85,997.14 1869.16,998.03 1869.81,1005.80"/>
    <poly id="building_57" type="building" color="200,200,200" fill="true" layer="2" shape="1868.11,997.84 1869.43,991.55 1876.70,991.72 1877.00,996.22 1872.92,996.82 1868.11,997.84"/>
    <poly id="building_58" type="building" color="200,200,200" fill="true" layer="2" shape="1844.68,1002.97 1855.04,1005.97 1856.67,1000.06 1861.14,999.96 1861.79,994.29 1858.73,993.79 1859.02,990.83 1847.97,990.29 1843.74,991.99 1842.98,995.68 1844.51,999.69 1844.68,1002.97"/>
    <poly id="building_59" type="building" color="200,200,200" fill="true" layer="2" shape="1821.21,982.33 1821.15,979.67 1832.94,980.35 1831.63,994.15 1827.41,994.07 1827.65,984.08 1821.21,982.33"/>
    <poly id="building_60" type="building" color="200,200,200" fill="true" layer="2" shape="1824.01,1005.70 1831.08,1006.11 1831.62,996.18 1826.11,995.60 1823.50,996.26 1824.01,1005.70"/>
    <poly id="building_61" type="building" color="200,200,200" fill="true" layer="2" shape="1811.49,993.62 1817.54,994.07 1819.05,984.12 1814.58,984.33 1811.32,984.49 1811.49,993.62"/>
    <poly id="building_62" type="building" color="200,200,200" fill="true" layer="2" shape="1805.80,1004.07 1811.65,1003.98 1811.16,997.03 1805.95,997.01 1805.80,1004.07"/>
    <poly id="building_63" type="building" color="200,200,200" fill="true" layer="2" shape="1783.58,1002.82 1792.14,1003.06 1791.77,992.48 1786.97,992.52 1787.01,984.28 1784.20,983.84 1783.58,1002.82"/>
    <poly id="building_64" type="building" color="200,200,200" fill="true" layer="2" shape="1824.76,1039.03 1829.39,1032.42 1830.56,1029.11 1830.06,1022.05 1799.38,1022.32 1796.80,1038.07 1824.76,1039.03"/>
    <poly id="building_65" type="building" color="200,200,200" fill="true" layer="2" shape="1813.85,1052.14 1825.33,1052.10 1826.53,1041.21 1813.80,1040.64 1813.85,1052.14"/>
    <poly id="building_66" type="building" color="200,200,200" fill="true" layer="2" shape="1815.90,930.36 1824.24,930.16 1824.00,916.78 1815.76,917.01 1815.90,930.36"/>
    <poly id="building_67" type="building" color="200,200,200" fill="true" layer="2" shape="1770.24,1048.21 1777.64,1049.07 1778.09,1046.39 1783.75,1045.80 1783.46,1041.36 1788.59,1040.87 1790.96,1031.17 1782.73,1031.14 1782.25,1025.35 1771.39,1026.53 1773.22,1030.07 1772.55,1034.42 1769.99,1034.20 1769.25,1036.28 1770.24,1048.21"/>
    <poly id="building_68" type="building" color="200,200,200" fill="true" layer="2" shape="1785.62,1080.61 1784.56,1079.91 1784.07,1075.03 1784.60,1071.49 1794.28,1069.40 1797.02,1082.59 1790.79,1082.64 1790.23,1080.07 1785.62,1080.61"/>
    <poly id="building_69" type="building" color="200,200,200" fill="true" layer="2" shape="1812.42,1060.70 1812.90,1053.38 1824.03,1054.04 1829.20,1056.85 1827.26,1061.29 1812.42,1060.70"/>
    <poly id="building_70" type="building" color="200,200,200" fill="true" layer="2" shape="1814.21,1071.08 1814.69,1063.15 1824.17,1063.11 1823.35,1070.77 1814.21,1071.08"/>
    <poly id="building_71" type="building" color="200,200,200" fill="true" layer="2" shape="1800.02,1098.91 1806.16,1099.20 1809.33,1102.16 1815.09,1100.49 1814.89,1095.96 1816.76,1092.33 1811.33,1091.51 1799.62,1091.94 1799.35,1093.07 1800.02,1098.91"/>
    <poly id="building_72" type="building" color="200,200,200" fill="true" layer="2" shape="1812.35,1090.25 1812.86,1075.79 1821.63,1075.65 1823.71,1090.92 1812.35,1090.25"/>
    <poly id="building_73" type="building" color="200,200,200" fill="true" layer="2" shape="1825.08,1087.08 1833.34,1086.34 1834.87,1078.72 1826.54,1077.50 1825.82,1081.08 1825.08,1087.08"/>
    <poly id="building_74" type="building" color="200,200,200" fill="true" layer="2" shape="1816.05,1100.18 1816.23,1096.08 1831.74,1091.90 1833.20,1095.65 1831.77,1096.02 1816.05,1100.18"/>
    <poly id="building_75" type="building" color="200,200,200" fill="true" layer="2" shape="2002.93,970.26 2011.71,970.04 2009.80,946.75 2001.73,947.32 2002.93,970.26"/>
    <poly id="building_76" type="building" color="200,200,200" fill="true" layer="2" shape="1972.95,910.01 1989.49,909.50 1991.97,883.41 1977.81,882.31 1972.95,910.01"/>
    <poly id="building_77" type="building" color="200,200,200" fill="true" layer="2" shape="2008.19,901.18 2009.40,910.31 1997.09,910.05 1996.69,905.07 2008.19,901.18"/>
    <poly id="building_78" type="building" color="200,200,200" fill="true" layer="2" shape="1951.66,909.78 1963.45,910.26 1967.53,887.25 1953.74,888.95 1951.66,909.78"/>
    <poly id="building_79" type="building" color="200,200,200" fill="true" layer="2" shape="1904.23,870.17 1910.82,870.08 1911.78,850.60 1904.70,852.17 1904.23,870.17"/>
    <poly id="building_80" type="building" color="200,200,200" fill="true" layer="2" shape="1909.42,901.52 1915.01,900.92 1915.73,881.33 1910.14,881.05 1910.13,882.65 1909.42,901.52"/>
    <poly id="building_81" type="building" color="200,200,200" fill="true" layer="2" shape="1902.48,898.15 1908.19,898.55 1909.18,873.52 1902.24,873.37 1902.67,886.07 1902.48,898.15"/>
    <poly id="building_82" type="building" color="200,200,200" fill="true" layer="2" shape="1916.00,902.29 1943.81,901.44 1948.03,875.31 1918.85,876.65 1917.82,882.93 1916.00,902.29"/>
    <poly id="building_83" type="building" color="200,200,200" fill="true" layer="2" shape="1888.79,934.75 1894.76,934.59 1894.62,919.54 1888.97,919.74 1888.79,934.75"/>
    <poly id="building_84" type="building" color="200,200,200" fill="true" layer="2" shape="1903.86,836.41 1917.37,836.99 1917.85,811.19 1913.56,810.47 1912.74,816.40 1906.93,817.06 1906.46,826.91 1903.86,836.41"/>
    <poly id="building_85" type="building" color="200,200,200" fill="true" layer="2" shape="1872.92,838.82 1876.46,839.43 1877.07,836.42 1884.14,837.55 1883.62,823.32 1873.43,823.43 1872.52,830.90 1872.92,838.82"/>
    <poly id="building_86" type="building" color="200,200,200" fill="true" layer="2" shape="1883.94,878.32 1884.43,870.99 1890.33,871.16 1899.32,873.33 1899.21,880.85 1890.58,880.40 1888.07,880.54 1883.94,878.32"/>
    <poly id="building_87" type="building" color="200,200,200" fill="true" layer="2" shape="1870.50,820.92 1882.61,819.95 1881.34,805.43 1871.60,805.24 1868.95,806.25 1870.50,820.92"/>
    <poly id="building_88" type="building" color="200,200,200" fill="true" layer="2" shape="1864.07,899.49 1867.17,899.94 1869.51,895.77 1873.03,893.67 1873.70,868.96 1868.38,867.73 1866.86,873.86 1864.78,874.13 1864.01,880.57 1863.97,889.66 1864.07,899.49"/>
    <poly id="building_89" type="building" color="200,200,200" fill="true" layer="2" shape="1873.36,899.67 1889.16,900.05 1889.83,882.45 1874.64,881.94 1873.36,899.67"/>
    <poly id="building_90" type="building" color="200,200,200" fill="true" layer="2" shape="1892.57,897.13 1899.50,897.45 1899.69,887.33 1892.47,886.71 1892.57,897.13"/>
    <poly id="building_91" type="building" color="200,200,200" fill="true" layer="2" shape="1912.28,973.91 1919.05,975.42 1918.92,942.71 1912.57,942.24 1912.28,973.91"/>
    <poly id="building_92" type="building" color="200,200,200" fill="true" layer="2" shape="1894.85,975.15 1900.01,974.88 1900.41,953.18 1894.66,953.00 1894.85,975.15"/>
    <poly id="building_93" type="building" color="200,200,200" fill="true" layer="2" shape="1884.76,847.53 1891.44,847.56 1891.90,839.27 1884.14,837.55 1884.18,840.47 1884.76,847.53"/>
    <poly id="building_94" type="building" color="200,200,200" fill="true" layer="2" shape="1880.67,961.15 1886.10,961.80 1887.00,947.70 1880.94,948.50 1880.67,961.15"/>
    <poly id="building_95" type="building" color="200,200,200" fill="true" layer="2" shape="1903.55,934.10 1911.70,933.93 1912.60,921.28 1902.99,921.44 1903.55,934.10"/>
    <poly id="building_96" type="building" color="200,200,200" fill="true" layer="2" shape="1901.07,1028.49 1910.22,1028.09 1910.75,1009.33 1901.45,1011.04 1901.07,1028.49"/>
    <poly id="building_97" type="building" color="200,200,200" fill="true" layer="2" shape="1960.09,1031.55 1957.00,1030.36 1955.48,1024.94 1953.13,1003.81 1956.85,998.98 1960.84,998.86 1964.97,998.58 1968.36,1000.07 1972.04,1001.11 1973.20,1005.22 1980.85,1010.98 1981.57,1014.94 1981.84,1021.25 1981.95,1027.55 1973.97,1030.59 1968.52,1029.39 1960.09,1031.55"/>
    <poly id="building_98" type="building" color="200,200,200" fill="true" layer="2" shape="1960.62,1044.32 1958.89,1036.25 1967.03,1032.33 1969.94,1040.85 1960.62,1044.32"/>
    <poly id="building_99" type="building" color="200,200,200" fill="true" layer="2" shape="1984.83,1011.88 1989.49,1025.99 2003.70,1019.01 2000.52,1005.35 1984.83,1011.88"/>
    <poly id="building_100" type="building" color="200,200,200" fill="true" layer="2" shape="1991.81,1003.27 1989.50,994.31 1996.30,992.28 1999.34,1003.30 1991.81,1003.27"/>
    <poly id="building_101" type="building" color="200,200,200" fill="true" layer="2" shape="1983.53,1006.30 1988.55,1005.30 1985.96,991.94 1980.50,993.09 1980.78,996.47 1983.53,1006.30"/>
    <poly id="building_102" type="building" color="200,200,200" fill="true" layer="2" shape="1870.04,1138.79 1894.55,1149.89 1897.74,1144.32 1889.93,1126.50 1869.72,1132.50 1870.04,1138.79"/>
    <poly id="building_103" type="building" color="200,200,200" fill="true" layer="2" shape="1844.47,1162.38 1857.79,1165.23 1858.56,1150.57 1845.58,1150.53 1844.47,1162.38"/>
    <poly id="building_104" type="building" color="200,200,200" fill="true" layer="2" shape="1847.62,1200.06 1863.41,1201.71 1868.57,1188.30 1851.73,1185.26 1847.62,1200.06"/>
    <poly id="building_105" type="building" color="200,200,200" fill="true" layer="2" shape="1828.08,1212.17 1841.77,1213.46 1841.62,1208.40 1841.99,1203.87 1835.50,1202.79 1829.53,1203.11 1827.76,1207.11 1828.08,1212.17"/>
    <poly id="building_106" type="building" color="200,200,200" fill="true" layer="2" shape="1823.88,1246.68 1842.12,1250.07 1841.30,1237.00 1825.17,1235.52 1823.88,1246.68"/>
    <poly id="building_107" type="building" color="200,200,200" fill="true" layer="2" shape="1824.29,1268.46 1837.63,1270.11 1838.88,1258.67 1824.63,1256.35 1824.29,1268.46"/>
    <poly id="building_108" type="building" color="200,200,200" fill="true" layer="2" shape="1783.68,1211.26 1797.73,1209.23 1797.09,1196.16 1784.81,1196.27 1783.72,1203.59 1783.68,1211.26"/>
    <poly id="building_109" type="building" color="200,200,200" fill="true" layer="2" shape="1762.78,1263.79 1777.34,1264.12 1777.66,1249.99 1763.11,1249.65 1762.78,1263.79"/>
    <poly id="building_110" type="building" color="200,200,200" fill="true" layer="2" shape="1688.06,1274.97 1706.05,1291.97 1716.64,1280.86 1712.63,1276.14 1718.12,1265.17 1721.12,1261.53 1725.70,1258.76 1719.07,1251.59 1710.99,1252.41 1688.06,1274.97"/>
    <poly id="building_111" type="building" color="200,200,200" fill="true" layer="2" shape="1672.26,1312.22 1650.80,1286.65 1696.10,1245.37 1706.78,1231.47 1716.18,1232.04 1734.31,1256.54 1697.97,1295.77 1693.51,1299.00 1682.82,1305.64 1672.26,1312.22"/>
    <poly id="building_112" type="building" color="200,200,200" fill="true" layer="2" shape="1698.74,1312.04 1715.62,1297.72 1717.77,1300.21 1722.70,1296.04 1727.69,1301.84 1718.33,1309.79 1721.06,1312.97 1714.76,1318.31 1711.36,1316.34 1706.20,1320.72 1698.74,1312.04"/>
    <poly id="building_113" type="building" color="200,200,200" fill="true" layer="2" shape="1851.54,1273.62 1864.07,1274.67 1862.35,1289.79 1859.54,1290.92 1853.84,1290.62 1853.93,1288.53 1849.99,1287.03 1851.54,1273.62"/>
    <poly id="building_114" type="building" color="200,200,200" fill="true" layer="2" shape="1868.65,1295.32 1876.00,1297.88 1881.02,1295.63 1880.12,1280.90 1868.81,1279.27 1868.65,1295.32"/>
    <poly id="building_115" type="building" color="200,200,200" fill="true" layer="2" shape="1864.58,1269.73 1867.22,1272.53 1874.89,1272.26 1874.21,1260.54 1865.21,1259.61 1864.58,1269.73"/>
    <poly id="building_116" type="building" color="200,200,200" fill="true" layer="2" shape="1853.28,1255.75 1868.34,1253.62 1870.02,1242.19 1854.38,1241.08 1853.28,1255.75"/>
    <poly id="building_117" type="building" color="200,200,200" fill="true" layer="2" shape="1918.74,1301.67 1929.83,1298.78 1931.07,1284.13 1914.40,1282.72 1913.59,1296.94 1918.74,1301.67"/>
    <poly id="building_118" type="building" color="200,200,200" fill="true" layer="2" shape="1885.00,1326.09 1904.15,1327.40 1905.52,1318.46 1905.91,1313.93 1888.24,1313.87 1888.07,1320.73 1884.97,1320.94 1885.00,1326.09"/>
    <poly id="building_119" type="building" color="200,200,200" fill="true" layer="2" shape="1865.19,1326.19 1876.56,1326.53 1876.69,1313.76 1864.92,1313.49 1865.19,1326.19"/>
    <poly id="building_120" type="building" color="200,200,200" fill="true" layer="2" shape="1829.52,1316.92 1839.84,1316.97 1840.81,1300.26 1831.82,1298.16 1829.52,1316.92"/>
    <poly id="building_121" type="building" color="200,200,200" fill="true" layer="2" shape="1797.92,1319.12 1807.07,1317.99 1805.85,1296.14 1798.76,1297.13 1797.92,1319.12"/>
    <poly id="building_122" type="building" color="200,200,200" fill="true" layer="2" shape="1783.91,1346.77 1794.37,1350.34 1795.65,1328.64 1783.85,1329.46 1783.91,1346.77"/>
    <poly id="building_123" type="building" color="200,200,200" fill="true" layer="2" shape="1722.85,1400.14 1736.74,1395.66 1730.09,1365.13 1713.69,1371.06 1722.85,1400.14"/>
    <poly id="building_124" type="building" color="200,200,200" fill="true" layer="2" shape="1694.94,1400.88 1714.15,1395.70 1712.48,1374.13 1701.41,1375.92 1694.54,1377.39 1694.94,1400.88"/>
    <poly id="building_125" type="building" color="200,200,200" fill="true" layer="2" shape="1652.62,1393.79 1662.79,1393.98 1664.07,1375.96 1653.14,1376.93 1652.52,1383.52 1652.62,1393.79"/>
    <poly id="building_126" type="building" color="200,200,200" fill="true" layer="2" shape="1629.42,1398.37 1638.87,1397.83 1640.88,1377.46 1634.39,1376.99 1633.23,1373.47 1627.76,1373.87 1629.42,1398.37"/>
    <poly id="building_127" type="building" color="200,200,200" fill="true" layer="2" shape="1599.82,1377.35 1601.21,1371.56 1618.83,1374.14 1616.59,1386.05 1604.28,1384.53 1604.93,1378.53 1599.82,1377.35"/>
    <poly id="building_128" type="building" color="200,200,200" fill="true" layer="2" shape="1579.01,1385.66 1594.98,1385.74 1599.44,1368.96 1577.33,1366.57 1575.60,1378.70 1580.30,1379.96 1579.01,1385.66"/>
    <poly id="building_129" type="building" color="200,200,200" fill="true" layer="2" shape="1489.77,1410.63 1493.53,1408.68 1494.56,1412.73 1503.85,1411.85 1501.95,1395.87 1489.52,1396.95 1489.77,1410.63"/>
    <poly id="building_130" type="building" color="200,200,200" fill="true" layer="2" shape="1468.86,1417.59 1480.46,1415.67 1477.94,1396.06 1461.55,1397.64 1468.86,1417.59"/>
    <poly id="building_131" type="building" color="200,200,200" fill="true" layer="2" shape="1473.94,1425.91 1472.62,1417.91 1498.10,1413.99 1498.49,1418.04 1498.37,1422.59 1473.94,1425.91"/>
    <poly id="building_132" type="building" color="200,200,200" fill="true" layer="2" shape="1851.05,898.95 1857.94,898.67 1858.86,879.50 1851.35,879.77 1851.04,876.76 1843.63,877.35 1843.06,889.99 1851.09,889.51 1851.05,898.95"/>
    <poly id="building_133" type="building" color="200,200,200" fill="true" layer="2" shape="1852.00,874.08 1857.74,874.20 1857.84,852.22 1855.87,851.18 1852.63,851.47 1851.43,862.66 1852.00,874.08"/>
    <poly id="building_134" type="building" color="200,200,200" fill="true" layer="2" shape="1833.53,865.79 1839.59,864.99 1841.12,847.68 1833.41,846.92 1833.53,865.79"/>
    <poly id="building_135" type="building" color="200,200,200" fill="true" layer="2" shape="1830.94,899.64 1838.13,900.22 1838.69,888.03 1830.80,888.30 1830.94,899.64"/>
    <poly id="building_136" type="building" color="200,200,200" fill="true" layer="2" shape="1832.37,885.41 1840.06,885.62 1840.78,877.36 1833.28,875.86 1832.37,885.41"/>
    <poly id="building_137" type="building" color="200,200,200" fill="true" layer="2" shape="1836.06,846.20 1843.50,846.23 1843.57,830.55 1836.13,830.52 1836.06,846.20"/>
    <poly id="building_138" type="building" color="200,200,200" fill="true" layer="2" shape="1799.36,844.16 1809.11,841.72 1809.19,825.29 1798.56,828.47 1799.36,844.16"/>
    <poly id="building_139" type="building" color="200,200,200" fill="true" layer="2" shape="1774.52,822.78 1791.93,824.48 1794.98,806.01 1774.44,808.85 1774.52,822.78"/>
    <poly id="building_140" type="building" color="200,200,200" fill="true" layer="2" shape="1733.90,830.36 1746.16,828.22 1742.56,810.30 1732.05,813.34 1733.90,830.36"/>
    <poly id="building_141" type="building" color="200,200,200" fill="true" layer="2" shape="1735.63,839.16 1736.24,833.59 1743.48,830.84 1750.42,831.76 1753.80,835.29 1751.56,839.82 1743.44,840.52 1735.63,839.16"/>
    <poly id="building_142" type="building" color="200,200,200" fill="true" layer="2" shape="1749.72,825.15 1755.92,824.30 1755.96,814.77 1750.36,811.67 1747.11,813.27 1747.07,821.47 1749.72,825.15"/>
    <poly id="building_143" type="building" color="200,200,200" fill="true" layer="2" shape="1746.61,857.10 1746.08,844.93 1751.69,842.47 1758.93,843.09 1760.97,847.06 1761.21,857.91 1756.64,856.86 1746.61,857.10"/>
    <poly id="building_144" type="building" color="200,200,200" fill="true" layer="2" shape="1754.38,898.78 1754.00,884.56 1763.90,883.87 1763.53,897.65 1754.38,898.78"/>
    <poly id="building_145" type="building" color="200,200,200" fill="true" layer="2" shape="1750.63,881.32 1762.74,880.49 1761.04,865.39 1750.40,867.24 1750.63,881.32"/>
    <poly id="building_146" type="building" color="200,200,200" fill="true" layer="2" shape="1765.76,895.76 1776.69,895.52 1775.71,883.93 1775.59,877.04 1764.97,876.84 1765.22,886.52 1765.76,895.76"/>
    <poly id="building_147" type="building" color="200,200,200" fill="true" layer="2" shape="1774.25,1104.80 1783.76,1103.19 1784.23,1092.62 1782.18,1082.34 1778.52,1064.07 1774.66,1063.54 1769.73,1067.14 1771.32,1085.61 1774.25,1104.80"/>
    <poly id="building_148" type="building" color="200,200,200" fill="true" layer="2" shape="1735.17,1048.72 1742.16,1048.97 1749.69,1045.78 1749.53,1037.33 1735.01,1038.77 1735.20,1043.65 1735.17,1048.72"/>
    <poly id="building_149" type="building" color="200,200,200" fill="true" layer="2" shape="1735.77,1056.09 1735.06,1050.49 1747.80,1048.90 1748.19,1053.45 1735.77,1056.09"/>
    <poly id="building_150" type="building" color="200,200,200" fill="true" layer="2" shape="1737.18,1063.88 1737.11,1057.14 1747.35,1054.59 1748.37,1061.13 1737.18,1063.88"/>
    <poly id="building_151" type="building" color="200,200,200" fill="true" layer="2" shape="1737.50,1083.68 1738.75,1084.62 1744.39,1084.02 1750.87,1082.91 1751.07,1063.94 1745.02,1063.70 1742.30,1064.52 1739.48,1065.13 1734.88,1065.41 1737.50,1083.68"/>