<?xml version="1.0" encoding="UTF-8"?>

<!-- generated on 2026-03-17T22:27:49.325938+05:30 by Eclipse SUMO netconvert 1.25.0
<netconvertConfiguration xmlns:xsi="http://www.w3.org/2001/XMLSchema-instance" xsi:noNamespaceSchemaLocation="http://sumo.dlr.de/xsd/netconvertConfiguration.xsd">

    <input>
        <osm-files value="map.osm"/>
    </input>

    <output>
        <output-file value="area.net.xml"/>
    </output>

    <projection>
        <proj.utm value="true"/>
    </projection>

    <processing>
        <geometry.remove value="true"/>
        <roundabouts.guess value="true"/>
    </processing>

    <ramp_guessing>
        <ramps.guess value="true"/>
    </ramp_guessing>

    <junctions>
        <no-turnarounds value="true"/>
    </junctions>

</netconvertConfiguration>
-->

<net version="1.20" junctionCornerDetail="5" limitTurnSpeed="5.50" xmlns:xsi="http://www.w3.org/2001/XMLSchema-instance" xsi:noNamespaceSchemaLocation="http://sumo.dlr.de/xsd/net_file.xsd">

    <location netOffset="-698020.59,-960657.76" convBoundary="0.00,0.00,4055.21,2517.63" origBoundary="76.799803,8.686325,76.836677,8.709152" projParameter="+proj=utm +zone=43 +ellps=WGS84 +datum=WGS84 +units=m +no_defs"/>

    <type id="highway.residential" priority="3" numLanes="1" speed="13.89" disallow="tram rail_urban rail rail_electric rail_fast ship container cable_car subway aircraft wheelchair scooter drone" oneway="0"/>
    <type id="highway.secondary" priority="11" numLanes="1" speed="27.78" disallow="tram rail_urban rail rail_electric rail_fast ship container cable_car subway aircraft wheelchair scooter drone" oneway="0"/>
    <type id="highway.service" priority="1" numLanes="1" speed="5.56" allow="pedestrian delivery bicycle" oneway="0"/>
    <type id="highway.tertiary" priority="10" numLanes="1" speed="22.22" disallow="tram rail_urban rail rail_electric rail_fast ship container cable_car subway aircraft wheelchair scooter drone" oneway="0"/>
    <type id="highway.trunk" priority="13" numLanes="2" speed="27.78" disallow="pedestrian bicycle tram rail_urban rail rail_electric rail_fast ship container cable_car subway aircraft wheelchair scooter drone" oneway="0"/>
    <type id="highway.trunk_link" priority="8" numLanes="1" speed="22.22" disallow="pedestrian bicycle tram rail_urban rail rail_electric rail_fast ship container cable_car subway aircraft wheelchair scooter drone" oneway="0"/>
    <type id="highway.unclassified" priority="4" numLanes="1" speed="13.89" disallow="tram rail_urban rail rail_electric rail_fast ship container cable_car subway aircraft wheelchair scooter drone" oneway="0"/>

    <edge id=":10243989072_0" function="internal">
        <lane id=":10243989072_0_0" index="0" disallow="tram rail_urban rail rail_electric rail_fast ship container cable_car subway aircraft wheelchair scooter drone" speed="8.24" length="10.25" shape="1886.30,523.29 1885.51,521.03 1884.04,519.20 1881.92,517.80 1879.12,516.82"/>
    </edge>
    <edge id=":10243989072_1" function="internal">
        <lane id=":10243989072_1_0" index="0" disallow="tram rail_urban rail rail_electric rail_fast ship container cable_car subway aircraft wheelchair scooter drone" speed="13.89" length="13.96" shape="1886.30,523.29 1885.81,519.74 1885.69,516.35 1885.88,512.96 1886.34,509.40"/>
    </edge>
    <edge id=":10243989072_2" function="internal">
        <lane id=":10243989072_2_0" index="0" disallow="tram rail_urban rail rail_electric rail_fast ship container cable_car subway aircraft wheelchair scooter drone" speed="13.89" length="12.88" shape="1889.50,509.90 1889.04,513.29 1888.84,516.31 1888.96,519.32 1889.45,522.70"/>
    </edge>
    <edge id=":10243989072_3" function="internal">
        <lane id=":10243989072_3_0" index="0" disallow="tram rail_urban rail rail_electric rail_fast ship container cable_car subway aircraft wheelchair scooter drone" speed="7.86" length="3.92" shape="1889.50,509.90 1888.35,513.64"/>
    </edge>
    <edge id=":10243989072_6" function="internal">
        <lane id=":10243989072_6_0" index="0" disallow="tram rail_urban rail rail_electric rail_fast ship container cable_car subway aircraft wheelchair scooter drone" speed="7.86" length="10.60" shape="1888.35,513.64 1888.32,513.74 1886.19,516.18 1883.13,517.20 1879.12,516.82"/>
    </edge>
    <edge id=":10243989072_4" function="internal">
        <lane id=":10243989072_4_0" index="0" disallow="tram rail_urban rail rail_electric rail_fast ship container cable_car subway aircraft wheelchair scooter drone" speed="6.34" length="9.04" shape="1879.87,513.71 1882.37,513.95 1884.28,513.31 1885.60,511.79 1886.34,509.40"/>
    </edge>
    <edge id=":10243989072_5" function="internal">
        <lane id=":10243989072_5_0" index="0" disallow="tram rail_urban rail rail_electric rail_fast ship container cable_car subway aircraft wheelchair scooter drone" speed="9.53" length="13.94" shape="1879.87,513.71 1883.57,515.03 1886.40,516.96 1888.36,519.52 1889.45,522.70"/>
    </edge>
    <edge id=":10243989079_0" function="internal">
        <lane id=":10243989079_0_0" index="0" disallow="tram rail_urban rail rail_electric rail_fast ship container cable_car subway aircraft wheelchair scooter drone" speed="6.67" length="9.24" shape="1900.13,573.71 1899.03,571.51 1897.45,570.16 1895.38,569.66 1892.83,570.02"/>
    </edge>
    <edge id=":10243989079_1" function="internal">
        <lane id=":10243989079_1_0" index="0" disallow="tram rail_urban rail rail_electric rail_fast ship container cable_car subway aircraft wheelchair scooter drone" speed="13.89" length="14.41" shape="1900.13,573.71 1895.66,560.01"/>
    </edge>
    <edge id=":10243989079_2" function="internal">
        <lane id=":10243989079_2_0" index="0" disallow="tram rail_urban rail rail_electric rail_fast ship container cable_car subway aircraft wheelchair scooter drone" speed="13.89" length="14.41" shape="1898.70,559.02 1903.17,572.72"/>
    </edge>
    <edge id=":10243989079_3" function="internal">
        <lane id=":10243989079_3_0" index="0" disallow="tram rail_urban rail rail_electric rail_fast ship container cable_car subway aircraft wheelchair scooter drone" speed="7.93" length="4.10" shape="1898.70,559.02 1899.39,562.92 1899.35,563.06"/>
    </edge>
    <edge id=":10243989079_6" function="internal">
        <lane id=":10243989079_6_0" index="0" disallow="tram rail_urban rail rail_electric rail_fast ship container cable_car subway aircraft wheelchair scooter drone" speed="7.93" length="10.25" shape="1899.35,563.06 1898.63,566.05 1896.45,568.42 1892.83,570.02"/>
    </edge>
    <edge id=":10243989079_4" function="internal">
        <lane id=":10243989079_4_0" index="0" disallow="tram rail_urban rail rail_electric rail_fast ship container cable_car subway aircraft wheelchair scooter drone" speed="6.42" length="9.04" shape="1891.97,566.94 1894.24,565.93 1895.62,564.44 1896.09,562.47 1895.66,560.01"/>
    </edge>
    <edge id=":10243989079_5" function="internal">
        <lane id=":10243989079_5_0" index="0" disallow="tram rail_urban rail rail_electric rail_fast ship container cable_car subway aircraft wheelchair scooter drone" speed="8.14" length="14.25" shape="1891.97,566.94 1895.87,566.40 1899.04,567.18 1901.47,569.29 1903.17,572.72"/>
    </edge>
    <edge id=":10243989083_0" function="internal">
        <lane id=":10243989083_0_0" index="0" disallow="tram rail_urban rail rail_electric rail_fast ship container cable_car subway aircraft wheelchair scooter drone" speed="6.35" length="9.04" shape="1738.40,604.64 1735.89,604.54 1734.02,605.28 1732.77,606.86 1732.15,609.29"/>
    </edge>
    <edge id=":10243989083_1" function="internal">
        <lane id=":10243989083_1_0" index="0" disallow="tram rail_urban rail rail_electric rail_fast ship container cable_car subway aircraft wheelchair scooter drone" speed="8.21" length="14.30" shape="1738.40,604.64 1734.59,603.40 1732.02,601.31 1730.69,598.38 1730.59,594.61"/>
    </edge>
    <edge id=":10243989083_2" function="internal">
        <lane id=":10243989083_2_0" index="0" disallow="tram rail_urban rail rail_electric rail_fast ship container cable_car subway aircraft wheelchair scooter drone" speed="6.76" length="9.40" shape="1733.77,594.96 1733.85,597.41 1734.74,599.31 1736.45,600.67 1738.98,601.49"/>
    </edge>
    <edge id=":10243989083_3" function="internal">
        <lane id=":10243989083_3_0" index="0" disallow="tram rail_urban rail rail_electric rail_fast ship container cable_car subway aircraft wheelchair scooter drone" speed="13.89" length="14.42" shape="1733.77,594.96 1732.15,609.29"/>
    </edge>
    <edge id=":10243989083_4" function="internal">
        <lane id=":10243989083_4_0" index="0" disallow="tram rail_urban rail rail_electric rail_fast ship container cable_car subway aircraft wheelchair scooter drone" speed="13.89" length="14.43" shape="1728.97,608.95 1730.59,594.61"/>
    </edge>
    <edge id=":10243989083_5" function="internal">
        <lane id=":10243989083_5_0" index="0" disallow="tram rail_urban rail rail_electric rail_fast ship container cable_car subway aircraft wheelchair scooter drone" speed="7.87" length="4.17" shape="1728.97,608.95 1729.97,605.06 1730.06,604.93"/>
    </edge>
    <edge id=":10243989083_6" function="internal">
        <lane id=":10243989083_6_0" index="0" disallow="tram rail_urban rail rail_electric rail_fast ship container cable_car subway aircraft wheelchair scooter drone" speed="7.87" length="10.32" shape="1730.06,604.93 1731.96,602.52 1734.97,601.33 1738.98,601.49"/>
    </edge>
    <edge id=":10246237969_0" function="internal">
        <lane id=":10246237969_0_0" index="0" disallow="tram rail_urban rail rail_electric rail_fast ship container cable_car subway aircraft wheelchair scooter drone" speed="13.89" length="10.91" shape="1848.09,803.28 1837.18,803.38"/>
    </edge>
    <edge id=":10246237969_1" function="internal">
        <lane id=":10246237969_1_0" index="0" disallow="tram rail_urban rail rail_electric rail_fast ship container cable_car subway aircraft wheelchair scooter drone" speed="7.94" length="4.09" shape="1848.09,803.28 1844.18,802.76 1844.05,802.68"/>
    </edge>
    <edge id=":10246237969_6" function="internal">
        <lane id=":10246237969_6_0" index="0" disallow="tram rail_urban rail rail_electric rail_fast ship container cable_car subway aircraft wheelchair scooter drone" speed="7.94" length="10.23" shape="1844.05,802.68 1841.42,801.10 1839.81,798.32 1839.34,794.40"/>
    </edge>
    <edge id=":10246237969_2" function="internal">
        <lane id=":10246237969_2_0" index="0" disallow="tram rail_urban rail rail_electric rail_fast ship container cable_car subway aircraft wheelchair scooter drone" speed="6.43" length="9.03" shape="1842.54,794.48 1842.83,796.95 1843.85,798.71 1845.59,799.75 1848.06,800.08"/>
    </edge>
    <edge id=":10246237969_3" function="internal">
        <lane id=":10246237969_3_0" index="0" disallow="tram rail_urban rail rail_electric rail_fast ship container cable_car subway aircraft wheelchair scooter drone" speed="7.36" length="11.55" shape="1842.54,794.48 1842.12,798.36 1841.09,801.13 1839.44,802.81 1837.18,803.38"/>
    </edge>
    <edge id=":10246237969_4" function="internal">
        <lane id=":10246237969_4_0" index="0" disallow="tram rail_urban rail rail_electric rail_fast ship container cable_car subway aircraft wheelchair scooter drone" speed="5.75" length="6.64" shape="1837.15,800.18 1838.05,799.82 1838.72,798.73 1839.15,796.92 1839.34,794.40"/>
    </edge>
    <edge id=":10246237969_5" function="internal">
        <lane id=":10246237969_5_0" index="0" disallow="tram rail_urban rail rail_electric rail_fast ship container cable_car subway aircraft wheelchair scooter drone" speed="13.89" length="10.91" shape="1837.15,800.18 1848.06,800.08"/>
    </edge>
    <edge id=":10570709093_0" function="internal">
        <lane id=":10570709093_0_0" index="0" disallow="pedestrian bicycle tram rail_urban rail rail_electric rail_fast ship container cable_car subway aircraft wheelchair scooter drone" speed="19.44" length="9.18" shape="1543.82,1711.97 1547.44,1720.28"/>
        <lane id=":10570709093_0_1" index="1" disallow="pedestrian bicycle tram rail_urban rail rail_electric rail_fast ship container cable_car subway aircraft wheelchair scooter drone" speed="19.44" length="9.18" shape="1540.84,1713.13 1544.55,1721.66"/>
    </edge>
    <edge id=":10570709093_2" function="internal">
        <lane id=":10570709093_2_0" index="0" disallow="pedestrian bicycle tram rail_urban rail rail_electric rail_fast ship container cable_car subway aircraft wheelchair scooter drone" speed="6.33" length="7.77" shape="1540.84,1713.13 1541.65,1715.73 1541.85,1717.78 1541.43,1719.29 1540.39,1720.27"/>
    </edge>
    <edge id=":10570709093_3" function="internal">
        <lane id=":10570709093_3_0" index="0" disallow="pedestrian bicycle tram rail_urban rail rail_electric rail_fast ship container cable_car subway aircraft wheelchair scooter drone" speed="6.04" length="7.86" shape="1538.91,1717.43 1540.35,1717.13 1541.77,1717.73 1543.17,1719.24 1544.55,1721.66"/>
    </edge>
    <edge id=":10596176350_0" function="internal">
        <lane id=":10596176350_0_0" index="0" disallow="tram rail_urban rail rail_electric rail_fast ship container cable_car subway aircraft wheelchair scooter drone" speed="6.45" length="9.03" shape="1066.65,1524.68 1065.69,1522.39 1064.22,1520.98 1062.26,1520.45 1059.80,1520.80"/>
    </edge>
    <edge id=":10596176350_1" function="internal">
        <lane id=":10596176350_1_0" index="0" disallow="tram rail_urban rail rail_electric rail_fast ship container cable_car subway aircraft wheelchair scooter drone" speed="8.10" length="14.23" shape="1066.65,1524.68 1066.19,1520.78 1067.05,1517.65 1069.23,1515.29 1072.72,1513.69"/>
    </edge>
    <edge id=":10596176350_2" function="internal">
        <lane id=":10596176350_2_0" index="0" disallow="tram rail_urban rail rail_electric rail_fast ship container cable_car subway aircraft wheelchair scooter drone" speed="6.62" length="9.18" shape="1073.62,1516.76 1071.38,1517.79 1069.99,1519.32 1069.44,1521.34 1069.75,1523.87"/>
    </edge>
    <edge id=":10596176350_3" function="internal">
        <lane id=":10596176350_3_0" index="0" disallow="tram rail_urban rail rail_electric rail_fast ship container cable_car subway aircraft wheelchair scooter drone" speed="27.78" length="14.40" shape="1073.62,1516.76 1059.80,1520.80"/>
    </edge>
    <edge id=":10596176350_4" function="internal">
        <lane id=":10596176350_4_0" index="0" disallow="tram rail_urban rail rail_electric rail_fast ship container cable_car subway aircraft wheelchair scooter drone" speed="27.78" length="14.40" shape="1058.90,1517.73 1072.72,1513.69"/>
    </edge>
    <edge id=":10596176350_5" function="internal">
        <lane id=":10596176350_5_0" index="0" disallow="tram rail_urban rail rail_electric rail_fast ship container cable_car subway aircraft wheelchair scooter drone" speed="7.95" length="4.09" shape="1058.90,1517.73 1062.80,1517.18 1062.95,1517.22"/>
    </edge>
    <edge id=":10596176350_6" function="internal">
        <lane id=":10596176350_6_0" index="0" disallow="tram rail_urban rail rail_electric rail_fast ship container cable_car subway aircraft wheelchair scooter drone" speed="7.95" length="10.21" shape="1062.95,1517.22 1065.90,1518.01 1068.22,1520.24 1069.75,1523.87"/>
    </edge>
    <edge id=":11041757064_0" function="internal">
        <lane id=":11041757064_0_0" index="0" disallow="pedestrian bicycle tram rail_urban rail rail_electric rail_fast ship container cable_car subway aircraft wheelchair scooter drone" speed="6.99" length="8.71" shape="1541.67,1307.55 1539.80,1307.20 1537.97,1307.67 1536.18,1308.95 1534.43,1311.03"/>
    </edge>
    <edge id=":11041757064_1" function="internal">
        <lane id=":11041757064_1_0" index="0" disallow="tram rail_urban rail rail_electric rail_fast ship container cable_car subway aircraft wheelchair scooter drone" speed="18.05" length="11.73" shape="1541.67,1307.55 1538.68,1306.31 1536.31,1305.17 1534.02,1303.88 1531.27,1302.16"/>
    </edge>
    <edge id=":11041757064_2" function="internal">
        <lane id=":11041757064_2_0" index="0" disallow="pedestrian bicycle tram rail_urban rail rail_electric rail_fast ship container cable_car subway aircraft wheelchair scooter drone" speed="5.23" length="7.01" shape="1544.35,1298.81 1542.65,1300.92 1541.83,1302.58 1541.89,1303.80 1542.84,1304.57"/>
    </edge>
    <edge id=":11041757064_3" function="internal">
        <lane id=":11041757064_3_0" index="0" disallow="pedestrian bicycle tram rail_urban rail rail_electric rail_fast ship container cable_car subway aircraft wheelchair scooter drone" speed="19.44" length="15.98" shape="1544.35,1298.81 1541.18,1302.25 1539.08,1304.67 1537.13,1307.21 1534.43,1311.03"/>
        <lane id=":11041757064_3_1" index="1" disallow="pedestrian bicycle tram rail_urban rail rail_electric rail_fast ship container cable_car subway aircraft wheelchair scooter drone" speed="19.44" length="15.98" shape="1542.00,1296.64 1538.74,1300.18 1536.58,1302.66 1534.57,1305.28 1531.81,1309.21"/>
    </edge>
    <edge id=":11041757064_5" function="internal">
        <lane id=":11041757064_5_0" index="0" disallow="pedestrian bicycle tram rail_urban rail rail_electric rail_fast ship container cable_car subway aircraft wheelchair scooter drone" speed="8.18" length="12.85" shape="1542.00,1296.64 1538.64,1299.91 1535.73,1301.91 1533.28,1302.66 1531.27,1302.16"/>
    </edge>
    <edge id=":11041757064_6" function="internal">
        <lane id=":11041757064_6_0" index="0" disallow="tram rail_urban rail rail_electric rail_fast ship container cable_car subway aircraft wheelchair scooter drone" speed="18.05" length="11.13" shape="1532.99,1299.46 1535.66,1301.13 1537.76,1302.33 1539.94,1303.37 1542.84,1304.57"/>
    </edge>
    <edge id=":11041757064_7" function="internal">
        <lane id=":11041757064_7_0" index="0" disallow="pedestrian bicycle tram rail_urban rail rail_electric rail_fast ship container cable_car subway aircraft wheelchair scooter drone" speed="7.01" length="10.96" shape="1532.99,1299.46 1534.37,1300.99 1534.63,1303.13 1533.78,1305.87 1531.81,1309.21"/>
    </edge>
    <edge id=":11041757066_0" function="internal">
        <lane id=":11041757066_0_0" index="0" disallow="tram rail_urban rail rail_electric rail_fast ship container cable_car subway aircraft wheelchair scooter drone" speed="27.78" length="14.37" shape="1438.36,1401.61 1425.28,1407.56"/>
    </edge>
    <edge id=":11041757066_1" function="internal">
        <lane id=":11041757066_1_0" index="0" disallow="tram rail_urban rail rail_electric rail_fast ship container cable_car subway aircraft wheelchair scooter drone" speed="7.83" length="4.06" shape="1438.36,1401.61 1434.47,1402.74"/>
    </edge>
    <edge id=":11041757066_6" function="internal">
        <lane id=":11041757066_6_0" index="0" disallow="tram rail_urban rail rail_electric rail_fast ship container cable_car subway aircraft wheelchair scooter drone" speed="7.83" length="10.54" shape="1434.47,1402.74 1431.26,1402.28 1428.75,1400.24 1426.92,1396.61"/>
    </edge>
    <edge id=":11041757066_2" function="internal">
        <lane id=":11041757066_2_0" index="0" disallow="tram rail_urban rail rail_electric rail_fast ship container cable_car subway aircraft wheelchair scooter drone" speed="6.30" length="9.04" shape="1429.96,1395.60 1431.09,1397.84 1432.65,1399.11 1434.63,1399.39 1437.05,1398.70"/>
    </edge>
    <edge id=":11041757066_3" function="internal">
        <lane id=":11041757066_3_0" index="0" disallow="tram rail_urban rail rail_electric rail_fast ship container cable_car subway aircraft wheelchair scooter drone" speed="8.35" length="14.33" shape="1429.96,1395.60 1430.74,1399.55 1430.22,1402.86 1428.40,1405.53 1425.28,1407.56"/>
    </edge>
    <edge id=":11041757066_4" function="internal">
        <lane id=":11041757066_4_0" index="0" disallow="tram rail_urban rail rail_electric rail_fast ship container cable_car subway aircraft wheelchair scooter drone" speed="6.93" length="9.58" shape="1423.92,1404.66 1425.96,1403.32 1427.14,1401.53 1427.46,1399.29 1426.92,1396.61"/>
    </edge>
    <edge id=":11041757066_5" function="internal">
        <lane id=":11041757066_5_0" index="0" disallow="tram rail_urban rail rail_electric rail_fast ship container cable_car subway aircraft wheelchair scooter drone" speed="27.78" length="14.42" shape="1423.92,1404.66 1437.05,1398.70"/>
    </edge>
    <edge id=":11041757067_0" function="internal">
        <lane id=":11041757067_0_0" index="0" disallow="tram rail_urban rail rail_electric rail_fast ship container cable_car subway aircraft wheelchair scooter drone" speed="5.55" length="11.44" shape="1516.51,1291.73 1513.18,1289.62 1511.41,1289.45 1511.21,1291.21 1512.56,1294.92"/>
    </edge>
    <edge id=":11041757067_1" function="internal">
        <lane id=":11041757067_1_0" index="0" disallow="tram rail_urban rail rail_electric rail_fast ship container cable_car subway aircraft wheelchair scooter drone" speed="27.78" length="17.50" shape="1503.90,1279.48 1507.09,1282.07 1510.98,1284.54 1514.97,1286.89 1518.43,1289.17"/>
    </edge>
    <edge id=":11041757067_2" function="internal">
        <lane id=":11041757067_2_0" index="0" disallow="tram rail_urban rail rail_electric rail_fast ship container cable_car subway aircraft wheelchair scooter drone" speed="27.78" length="10.45" shape="1503.90,1279.48 1506.44,1282.75 1508.77,1286.83 1509.47,1288.28"/>
    </edge>
    <edge id=":11041757067_3" function="internal">
        <lane id=":11041757067_3_0" index="0" disallow="tram rail_urban rail rail_electric rail_fast ship container cable_car subway aircraft wheelchair scooter drone" speed="27.78" length="7.32" shape="1509.47,1288.28 1510.82,1291.09 1512.56,1294.92"/>
    </edge>
    <edge id=":11276034873_0" function="internal">
        <lane id=":11276034873_0_0" index="0" disallow="pedestrian bicycle tram rail_urban rail rail_electric rail_fast ship container cable_car subway aircraft wheelchair scooter drone" speed="6.89" length="8.14" shape="2307.78,748.04 2307.49,746.48 2307.95,744.82 2309.16,743.07 2311.12,741.21"/>
    </edge>
    <edge id=":11276034873_1" function="internal">
        <lane id=":11276034873_1_0" index="0" disallow="pedestrian bicycle tram rail_urban rail rail_electric rail_fast ship container cable_car subway aircraft wheelchair scooter drone" speed="27.78" length="9.32" shape="2301.73,744.24 2309.09,738.73"/>
        <lane id=":11276034873_1_1" index="1" disallow="pedestrian bicycle tram rail_urban rail rail_electric rail_fast ship container cable_car subway aircraft wheelchair scooter drone" speed="27.78" length="9.32" shape="2303.56,746.86 2311.12,741.21"/>
    </edge>
    <edge id=":11276034873_3" function="internal">
        <lane id=":11276034873_3_0" index="0" disallow="pedestrian bicycle tram rail_urban rail rail_electric rail_fast ship container cable_car subway aircraft wheelchair scooter drone" speed="5.91" length="8.34" shape="2303.56,746.86 2306.07,745.41 2308.09,744.91 2309.64,745.35 2310.70,746.74"/>
    </edge>
    <edge id=":12094492961_0" function="internal">
        <lane id=":12094492961_0_0" index="0" disallow="tram rail_urban rail rail_electric rail_fast ship container cable_car subway aircraft wheelchair scooter drone" speed="6.73" length="9.31" shape="884.94,452.90 882.33,452.90 880.33,453.68 878.92,455.22 878.10,457.55"/>
    </edge>
    <edge id=":12094492961_1" function="internal">
        <lane id=":12094492961_1_0" index="0" disallow="tram rail_urban rail rail_electric rail_fast ship container cable_car subway aircraft wheelchair scooter drone" speed="7.91" length="14.40" shape="884.94,452.90 881.11,451.82 878.62,449.78 877.46,446.77 877.64,442.79"/>
    </edge>
    <edge id=":12094492961_2" function="internal">
        <lane id=":12094492961_2_0" index="0" disallow="tram rail_urban rail rail_electric rail_fast ship container cable_car subway aircraft wheelchair scooter drone" speed="6.39" length="9.04" shape="880.78,443.39 880.67,445.88 881.40,447.77 882.96,449.05 885.36,449.73"/>
    </edge>
    <edge id=":12094492961_3" function="internal">
        <lane id=":12094492961_3_0" index="0" disallow="tram rail_urban rail rail_electric rail_fast ship container cable_car subway aircraft wheelchair scooter drone" speed="13.89" length="14.41" shape="880.78,443.39 878.10,457.55"/>
    </edge>
    <edge id=":12094492961_4" function="internal">
        <lane id=":12094492961_4_0" index="0" disallow="tram rail_urban rail rail_electric rail_fast ship container cable_car subway aircraft wheelchair scooter drone" speed="13.89" length="14.41" shape="874.96,456.95 877.64,442.79"/>
    </edge>
    <edge id=":12094492961_5" function="internal">
        <lane id=":12094492961_5_0" index="0" disallow="tram rail_urban rail rail_electric rail_fast ship container cable_car subway aircraft wheelchair scooter drone" speed="8.18" length="3.98" shape="874.96,456.95 876.21,453.35 876.32,453.22"/>
    </edge>
    <edge id=":12094492961_6" function="internal">
        <lane id=":12094492961_6_0" index="0" disallow="tram rail_urban rail rail_electric rail_fast ship container cable_car subway aircraft wheelchair scooter drone" speed="8.18" length="10.29" shape="876.32,453.22 878.36,450.95 881.41,449.74 885.36,449.73"/>
    </edge>
    <edge id=":12094598147_0" function="internal">
        <lane id=":12094598147_0_0" index="0" disallow="tram rail_urban rail rail_electric rail_fast ship container cable_car subway aircraft wheelchair scooter drone" speed="8.02" length="10.01" shape="2025.84,1706.01 2024.89,1703.81 2023.34,1702.12 2021.18,1700.94 2018.41,1700.26"/>
    </edge>
    <edge id=":12094598147_1" function="internal">
        <lane id=":12094598147_1_0" index="0" disallow="tram rail_urban rail rail_electric rail_fast ship container cable_car subway aircraft wheelchair scooter drone" speed="13.89" length="13.87" shape="2025.84,1706.01 2025.11,1702.52 2024.76,1699.18 2024.76,1695.81 2025.04,1692.24"/>
    </edge>
    <edge id=":12094598147_2" function="internal">
        <lane id=":12094598147_2_0" index="0" disallow="tram rail_urban rail rail_electric rail_fast ship container cable_car subway aircraft wheelchair scooter drone" speed="13.89" length="12.72" shape="2028.22,1692.59 2027.93,1695.98 2027.90,1698.95 2028.22,1701.89 2028.93,1705.21"/>
    </edge>
    <edge id=":12094598147_3" function="internal">
        <lane id=":12094598147_3_0" index="0" disallow="tram rail_urban rail rail_electric rail_fast ship container cable_car subway aircraft wheelchair scooter drone" speed="7.95" length="3.93" shape="2028.22,1692.59 2027.24,1696.40"/>
    </edge>
    <edge id=":12094598147_6" function="internal">
        <lane id=":12094598147_6_0" index="0" disallow="tram rail_urban rail rail_electric rail_fast ship container cable_car subway aircraft wheelchair scooter drone" speed="7.95" length="10.36" shape="2027.24,1696.40 2025.28,1698.95 2022.34,1700.24 2018.41,1700.26"/>
    </edge>
    <edge id=":12094598147_4" function="internal">
        <lane id=":12094598147_4_0" index="0" disallow="tram rail_urban rail rail_electric rail_fast ship container cable_car subway aircraft wheelchair scooter drone" speed="6.45" length="9.03" shape="2018.84,1697.09 2021.32,1697.08 2023.18,1696.26 2024.42,1694.65 2025.04,1692.24"/>
    </edge>
    <edge id=":12094598147_5" function="internal">
        <lane id=":12094598147_5_0" index="0" disallow="tram rail_urban rail rail_electric rail_fast ship container cable_car subway aircraft wheelchair scooter drone" speed="9.33" length="13.81" shape="2018.84,1697.09 2022.57,1698.02 2025.50,1699.68 2027.62,1702.08 2028.93,1705.21"/>
    </edge>
    <edge id=":12094598153_0" function="internal">
        <lane id=":12094598153_0_0" index="0" disallow="tram rail_urban rail rail_electric rail_fast ship container cable_car subway aircraft wheelchair scooter drone" speed="13.89" length="14.57" shape="1727.92,1849.60 1713.39,1850.81"/>
    </edge>
    <edge id=":12094598153_1" function="internal">
        <lane id=":12094598153_1_0" index="0" disallow="tram rail_urban rail rail_electric rail_fast ship container cable_car subway aircraft wheelchair scooter drone" speed="7.65" length="4.30" shape="1727.92,1849.60 1723.62,1849.34"/>
    </edge>
    <edge id=":12094598153_6" function="internal">
        <lane id=":12094598153_6_0" index="0" disallow="tram rail_urban rail rail_electric rail_fast ship container cable_car subway aircraft wheelchair scooter drone" speed="7.65" length="10.85" shape="1723.62,1849.34 1720.77,1847.74 1719.35,1844.78 1719.37,1840.48"/>
    </edge>
    <edge id=":12094598153_2" function="internal">
        <lane id=":12094598153_2_0" index="0" disallow="tram rail_urban rail rail_electric rail_fast ship container cable_car subway aircraft wheelchair scooter drone" speed="6.06" length="9.07" shape="1722.54,1840.95 1722.52,1843.53 1723.37,1845.29 1725.08,1846.25 1727.65,1846.41"/>
    </edge>
    <edge id=":12094598153_3" function="internal">
        <lane id=":12094598153_3_0" index="0" disallow="tram rail_urban rail rail_electric rail_fast ship container cable_car subway aircraft wheelchair scooter drone" speed="8.90" length="14.65" shape="1722.54,1840.95 1721.45,1845.02 1719.56,1848.02 1716.88,1849.95 1713.39,1850.81"/>
    </edge>
    <edge id=":12094598153_4" function="internal">
        <lane id=":12094598153_4_0" index="0" disallow="tram rail_urban rail rail_electric rail_fast ship container cable_car subway aircraft wheelchair scooter drone" speed="7.55" length="10.32" shape="1713.13,1847.62 1715.48,1847.01 1717.31,1845.62 1718.61,1843.44 1719.37,1840.48"/>
    </edge>
    <edge id=":12094598153_5" function="internal">