<?xml version="1.0" encoding="UTF-8"?>

<!-- generated on 2026-02-13T03:17:54.343915+05:30 by Eclipse SUMO netconvert 1.25.0
<netconvertConfiguration xmlns:xsi="http://www.w3.org/2001/XMLSchema-instance" xsi:noNamespaceSchemaLocation="http://sumo.dlr.de/xsd/netconvertConfiguration.xsd">

    <input>
        <osm-files value="map.osm"/>
    </input>

    <output>
        <output-file value="area.net.xml"/>
    </output>

    <projection>
        <proj.utm value="true"/>
    </projection>

    <processing>
        <geometry.remove value="true"/>
        <roundabouts.guess value="true"/>
    </processing>

    <ramp_guessing>
        <ramps.guess value="true"/>
    </ramp_guessing>

    <junctions>
        <no-turnarounds value="true"/>
    </junctions>

</netconvertConfiguration>
-->

<net version="1.20" junctionCornerDetail="5" limitTurnSpeed="5.50" xmlns:xsi="http://www.w3.org/2001/XMLSchema-instance" xsi:noNamespaceSchemaLocation="http://sumo.dlr.de/xsd/net_file.xsd">

    <location netOffset="-714935.46,-941582.24" convBoundary="0.00,0.00,2704.25,5600.76" origBoundary="76.952841,8.513160,76.977258,8.563888" projParameter="+proj=utm +zone=43 +ellps=WGS84 +datum=WGS84 +units=m +no_defs"/>

    <type id="highway.footway" priority="1" numLanes="1" speed="2.78" allow="pedestrian" oneway="1" width="2.00"/>
    <type id="highway.living_street" priority="2" numLanes="1" speed="2.78" disallow="tram rail_urban rail rail_electric rail_fast ship container cable_car subway aircraft wheelchair scooter drone" oneway="0"/>
    <type id="highway.path" priority="1" numLanes="1" speed="5.56" allow="pedestrian bicycle" oneway="0" width="2.00"/>
    <type id="highway.primary" priority="12" numLanes="2" speed="27.78" disallow="tram rail_urban rail rail_electric rail_fast ship container cable_car subway aircraft wheelchair scooter drone" oneway="0"/>
    <type id="highway.primary_link" priority="7" numLanes="1" speed="22.22" disallow="tram rail_urban rail rail_electric rail_fast ship container cable_car subway aircraft wheelchair scooter drone" oneway="0"/>
    <type id="highway.residential" priority="3" numLanes="1" speed="13.89" disallow="tram rail_urban rail rail_electric rail_fast ship container cable_car subway aircraft wheelchair scooter drone" oneway="0"/>
    <type id="highway.secondary" priority="11" numLanes="1" speed="27.78" disallow="tram rail_urban rail rail_electric rail_fast ship container cable_car subway aircraft wheelchair scooter drone" oneway="0"/>
    <type id="highway.service" priority="1" numLanes="1" speed="5.56" allow="pedestrian delivery bicycle" oneway="0"/>
    <type id="highway.steps" priority="1" numLanes="1" speed="1.39" allow="pedestrian" oneway="1" width="2.00"/>
    <type id="highway.tertiary" priority="10" numLanes="1" speed="22.22" disallow="tram rail_urban rail rail_electric rail_fast ship container cable_car subway aircraft wheelchair scooter drone" oneway="0"/>
    <type id="highway.unclassified" priority="4" numLanes="1" speed="13.89" disallow="tram rail_urban rail rail_electric rail_fast ship container cable_car subway aircraft wheelchair scooter drone" oneway="0"/>

    <edge id=":10244541228_0" function="internal">
        <lane id=":10244541228_0_0" index="0" disallow="tram rail_urban rail rail_electric rail_fast ship container cable_car subway aircraft wheelchair scooter drone" speed="22.22" length="14.02" shape="1959.15,2643.76 1945.51,2647.01"/>
    </edge>
    <edge id=":10244541228_1" function="internal">
        <lane id=":10244541228_1_0" index="0" disallow="tram rail_urban rail rail_electric rail_fast ship container cable_car subway aircraft wheelchair scooter drone" speed="7.91" length="3.99" shape="1959.15,2643.76 1955.17,2644.01"/>
    </edge>
    <edge id=":10244541228_6" function="internal">
        <lane id=":10244541228_6_0" index="0" disallow="tram rail_urban rail rail_electric rail_fast ship container cable_car subway aircraft wheelchair scooter drone" speed="7.91" length="10.34" shape="1955.17,2644.01 1955.06,2644.01 1951.96,2642.97 1949.85,2640.62 1948.71,2636.99"/>
    </edge>
    <edge id=":10244541228_2" function="internal">
        <lane id=":10244541228_2_0" index="0" disallow="tram rail_urban rail rail_electric rail_fast ship container cable_car subway aircraft wheelchair scooter drone" speed="6.50" length="9.32" shape="1951.82,2636.12 1952.56,2638.52 1953.92,2640.07 1955.91,2640.77 1958.54,2640.62"/>
    </edge>
    <edge id=":10244541228_3" function="internal">
        <lane id=":10244541228_3_0" index="0" disallow="tram rail_urban rail rail_electric rail_fast ship container cable_car subway aircraft wheelchair scooter drone" speed="8.32" length="13.98" shape="1951.82,2636.12 1951.92,2640.08 1950.90,2643.22 1948.76,2645.53 1945.51,2647.01"/>
    </edge>
    <edge id=":10244541228_4" function="internal">
        <lane id=":10244541228_4_0" index="0" disallow="tram rail_urban rail rail_electric rail_fast ship container cable_car subway aircraft wheelchair scooter drone" speed="6.77" length="8.93" shape="1944.65,2643.92 1946.74,2642.98 1948.11,2641.51 1948.77,2639.51 1948.71,2636.99"/>
    </edge>
    <edge id=":10244541228_5" function="internal">
        <lane id=":10244541228_5_0" index="0" disallow="tram rail_urban rail rail_electric rail_fast ship container cable_car subway aircraft wheelchair scooter drone" speed="22.22" length="14.27" shape="1944.65,2643.92 1958.54,2640.62"/>
    </edge>
    <edge id=":10244541233_0" function="internal">
        <lane id=":10244541233_0_0" index="0" disallow="tram rail_urban rail rail_electric rail_fast ship container cable_car subway aircraft wheelchair scooter drone" speed="7.32" length="9.98" shape="1935.60,2520.12 1934.50,2517.95 1932.79,2516.51 1930.49,2515.79 1927.59,2515.80"/>
    </edge>
    <edge id=":10244541233_1" function="internal">
        <lane id=":10244541233_1_0" index="0" disallow="tram rail_urban rail rail_electric rail_fast ship container cable_car subway aircraft wheelchair scooter drone" speed="13.89" length="14.88" shape="1935.60,2520.12 1931.32,2505.87"/>
    </edge>
    <edge id=":10244541233_2" function="internal">
        <lane id=":10244541233_2_0" index="0" disallow="tram rail_urban rail rail_electric rail_fast ship container cable_car subway aircraft wheelchair scooter drone" speed="8.98" length="3.91" shape="1935.60,2520.12 1935.06,2516.52 1935.12,2516.26"/>
    </edge>
    <edge id=":10244541233_12" function="internal">
        <lane id=":10244541233_12_0" index="0" disallow="tram rail_urban rail rail_electric rail_fast ship container cable_car subway aircraft wheelchair scooter drone" speed="8.98" length="10.97" shape="1935.12,2516.26 1935.82,2513.25 1937.90,2510.31 1941.29,2507.70"/>
    </edge>
    <edge id=":10244541233_3" function="internal">
        <lane id=":10244541233_3_0" index="0" disallow="tram rail_urban rail rail_electric rail_fast ship container cable_car subway aircraft wheelchair scooter drone" speed="7.65" length="10.56" shape="1942.94,2510.44 1940.45,2512.33 1938.91,2514.41 1938.31,2516.68 1938.65,2519.15"/>
    </edge>
    <edge id=":10244541233_4" function="internal">
        <lane id=":10244541233_4_0" index="0" disallow="tram rail_urban rail rail_electric rail_fast ship container cable_car subway aircraft wheelchair scooter drone" speed="13.89" length="16.37" shape="1942.94,2510.44 1939.44,2512.29 1935.52,2513.87 1931.48,2515.08 1927.59,2515.80"/>
    </edge>
    <edge id=":10244541233_5" function="internal">
        <lane id=":10244541233_5_0" index="0" disallow="tram rail_urban rail rail_electric rail_fast ship container cable_car subway aircraft wheelchair scooter drone" speed="7.61" length="15.32" shape="1942.94,2510.44 1938.92,2512.15 1935.64,2511.96 1933.11,2509.87 1931.32,2505.87"/>
    </edge>
    <edge id=":10244541233_6" function="internal">
        <lane id=":10244541233_6_0" index="0" disallow="tram rail_urban rail rail_electric rail_fast ship container cable_car subway aircraft wheelchair scooter drone" speed="6.01" length="9.08" shape="1934.40,2505.00 1935.46,2507.36 1936.96,2508.60 1938.90,2508.71 1941.29,2507.70"/>
    </edge>
    <edge id=":10244541233_7" function="internal">
        <lane id=":10244541233_7_0" index="0" disallow="tram rail_urban rail rail_electric rail_fast ship container cable_car subway aircraft wheelchair scooter drone" speed="13.89" length="14.78" shape="1934.40,2505.00 1938.65,2519.15"/>
    </edge>
    <edge id=":10244541233_8" function="internal">
        <lane id=":10244541233_8_0" index="0" disallow="tram rail_urban rail rail_electric rail_fast ship container cable_car subway aircraft wheelchair scooter drone" speed="7.82" length="4.35" shape="1934.40,2505.00 1935.01,2509.30"/>
    </edge>
    <edge id=":10244541233_13" function="internal">
        <lane id=":10244541233_13_0" index="0" disallow="tram rail_urban rail rail_electric rail_fast ship container cable_car subway aircraft wheelchair scooter drone" speed="7.82" length="10.82" shape="1935.01,2509.30 1934.08,2512.54 1931.60,2514.71 1927.59,2515.80"/>
    </edge>
    <edge id=":10244541233_9" function="internal">
        <lane id=":10244541233_9_0" index="0" disallow="tram rail_urban rail rail_electric rail_fast ship container cable_car subway aircraft wheelchair scooter drone" speed="6.28" length="9.38" shape="1927.21,2512.62 1929.66,2511.95 1931.16,2510.59 1931.72,2508.57 1931.32,2505.87"/>
    </edge>
    <edge id=":10244541233_10" function="internal">
        <lane id=":10244541233_10_0" index="0" disallow="tram rail_urban rail rail_electric rail_fast ship container cable_car subway aircraft wheelchair scooter drone" speed="13.89" length="15.02" shape="1927.21,2512.62 1930.91,2511.97 1934.51,2510.91 1937.98,2509.48 1941.29,2507.70"/>
    </edge>
    <edge id=":10244541233_11" function="internal">
        <lane id=":10244541233_11_0" index="0" disallow="tram rail_urban rail rail_electric rail_fast ship container cable_car subway aircraft wheelchair scooter drone" speed="8.69" length="14.45" shape="1927.21,2512.62 1931.31,2512.64 1934.58,2513.73 1937.03,2515.90 1938.65,2519.15"/>
    </edge>
    <edge id=":10275618248_0" function="internal">
        <lane id=":10275618248_0_0" index="0" disallow="tram rail_urban rail rail_electric rail_fast ship container cable_car subway aircraft wheelchair scooter drone" speed="13.89" length="12.37" shape="2331.00,2439.31 2319.02,2442.39"/>
    </edge>
    <edge id=":10275618248_1" function="internal">
        <lane id=":10275618248_1_0" index="0" disallow="tram rail_urban rail rail_electric rail_fast ship container cable_car subway aircraft wheelchair scooter drone" speed="7.30" length="3.29" shape="2331.00,2439.31 2327.89,2439.61 2327.74,2439.54"/>
    </edge>
    <edge id=":10275618248_6" function="internal">
        <lane id=":10275618248_6_0" index="0" disallow="tram rail_urban rail rail_electric rail_fast ship container cable_car subway aircraft wheelchair scooter drone" speed="7.30" length="9.76" shape="2327.74,2439.54 2325.49,2438.47 2323.80,2435.87 2322.83,2431.81"/>
    </edge>
    <edge id=":10275618248_2" function="internal">
        <lane id=":10275618248_2_0" index="0" disallow="tram rail_urban rail rail_electric rail_fast ship container cable_car subway aircraft wheelchair scooter drone" speed="5.64" length="7.32" shape="2326.00,2431.40 2326.54,2433.89 2327.40,2435.53 2328.58,2436.31 2330.09,2436.24"/>
    </edge>
    <edge id=":10275618248_3" function="internal">
        <lane id=":10275618248_3_0" index="0" disallow="tram rail_urban rail rail_electric rail_fast ship container cable_car subway aircraft wheelchair scooter drone" speed="8.38" length="14.54" shape="2326.00,2431.40 2326.01,2435.52 2324.85,2438.72 2322.52,2441.01 2319.02,2442.39"/>
    </edge>
    <edge id=":10275618248_4" function="internal">
        <lane id=":10275618248_4_0" index="0" disallow="tram rail_urban rail rail_electric rail_fast ship container cable_car subway aircraft wheelchair scooter drone" speed="6.96" length="9.73" shape="2318.31,2439.26 2320.59,2438.35 2322.10,2436.80 2322.85,2434.62 2322.83,2431.81"/>
    </edge>
    <edge id=":10275618248_5" function="internal">
        <lane id=":10275618248_5_0" index="0" disallow="tram rail_urban rail rail_electric rail_fast ship container cable_car subway aircraft wheelchair scooter drone" speed="13.89" length="12.16" shape="2318.31,2439.26 2330.09,2436.24"/>
    </edge>
    <edge id=":10275618251_0" function="internal">
        <lane id=":10275618251_0_0" index="0" disallow="tram rail_urban rail rail_electric rail_fast ship container cable_car subway aircraft wheelchair scooter drone" speed="8.90" length="13.31" shape="2330.36,2361.25 2327.90,2358.53 2325.16,2356.87 2322.13,2356.28 2318.82,2356.76"/>
    </edge>
    <edge id=":10275618251_1" function="internal">
        <lane id=":10275618251_1_0" index="0" disallow="tram rail_urban rail rail_electric rail_fast ship container cable_car subway aircraft wheelchair scooter drone" speed="13.89" length="17.45" shape="2330.36,2361.25 2327.96,2357.85 2325.43,2353.98 2323.26,2349.95 2321.92,2346.09"/>
    </edge>
    <edge id=":10275618251_2" function="internal">
        <lane id=":10275618251_2_0" index="0" disallow="tram rail_urban rail rail_electric rail_fast ship container cable_car subway aircraft wheelchair scooter drone" speed="7.72" length="4.82" shape="2330.36,2361.25 2328.09,2357.00"/>
    </edge>
    <edge id=":10275618251_12" function="internal">
        <lane id=":10275618251_12_0" index="0" disallow="tram rail_urban rail rail_electric rail_fast ship container cable_car subway aircraft wheelchair scooter drone" speed="7.72" length="11.11" shape="2328.09,2357.00 2327.83,2353.48 2329.59,2350.70 2333.36,2348.65"/>
    </edge>
    <edge id=":10275618251_3" function="internal">
        <lane id=":10275618251_3_0" index="0" disallow="tram rail_urban rail rail_electric rail_fast ship container cable_car subway aircraft wheelchair scooter drone" speed="5.99" length="9.10" shape="2334.42,2351.67 2332.22,2352.85 2331.18,2354.43 2331.29,2356.43 2332.56,2358.83"/>
    </edge>
    <edge id=":10275618251_4" function="internal">
        <lane id=":10275618251_4_0" index="0" disallow="tram rail_urban rail rail_electric rail_fast ship container cable_car subway aircraft wheelchair scooter drone" speed="8.33" length="16.41" shape="2334.42,2351.67 2318.82,2356.76"/>
    </edge>
    <edge id=":10275618251_5" function="internal">
        <lane id=":10275618251_5_0" index="0" disallow="tram rail_urban rail rail_electric rail_fast ship container cable_car subway aircraft wheelchair scooter drone" speed="7.83" length="14.94" shape="2334.42,2351.67 2330.78,2352.06 2326.90,2351.12 2323.65,2349.06 2321.92,2346.09"/>
    </edge>
    <edge id=":10275618251_6" function="internal">
        <lane id=":10275618251_6_0" index="0" disallow="tram rail_urban rail rail_electric rail_fast ship container cable_car subway aircraft wheelchair scooter drone" speed="6.64" length="10.43" shape="2325.05,2345.44 2326.01,2347.78 2327.72,2349.10 2330.17,2349.39 2333.36,2348.65"/>
    </edge>
    <edge id=":10275618251_7" function="internal">
        <lane id=":10275618251_7_0" index="0" disallow="tram rail_urban rail rail_electric rail_fast ship container cable_car subway aircraft wheelchair scooter drone" speed="13.89" length="15.45" shape="2325.05,2345.44 2326.24,2349.03 2328.10,2352.44 2330.31,2355.70 2332.56,2358.83"/>
    </edge>
    <edge id=":10275618251_8" function="internal">
        <lane id=":10275618251_8_0" index="0" disallow="tram rail_urban rail rail_electric rail_fast ship container cable_car subway aircraft wheelchair scooter drone" speed="8.33" length="2.74" shape="2325.05,2345.44 2325.26,2348.17"/>
    </edge>
    <edge id=":10275618251_13" function="internal">
        <lane id=":10275618251_13_0" index="0" disallow="tram rail_urban rail rail_electric rail_fast ship container cable_car subway aircraft wheelchair scooter drone" speed="8.33" length="11.74" shape="2325.26,2348.17 2325.35,2349.50 2324.41,2352.75 2322.24,2355.17 2318.82,2356.76"/>
    </edge>
    <edge id=":10275618251_9" function="internal">
        <lane id=":10275618251_9_0" index="0" disallow="tram rail_urban rail rail_electric rail_fast ship container cable_car subway aircraft wheelchair scooter drone" speed="6.90" length="9.62" shape="2317.92,2353.69 2320.14,2352.64 2321.54,2351.02 2322.14,2348.83 2321.92,2346.09"/>
    </edge>
    <edge id=":10275618251_10" function="internal">
        <lane id=":10275618251_10_0" index="0" disallow="tram rail_urban rail rail_electric rail_fast ship container cable_car subway aircraft wheelchair scooter drone" speed="8.33" length="16.24" shape="2317.92,2353.69 2333.36,2348.65"/>
    </edge>
    <edge id=":10275618251_11" function="internal">
        <lane id=":10275618251_11_0" index="0" disallow="tram rail_urban rail rail_electric rail_fast ship container cable_car subway aircraft wheelchair scooter drone" speed="9.79" length="16.24" shape="2317.92,2353.69 2321.73,2353.38 2325.91,2354.29 2329.74,2356.19 2332.56,2358.83"/>
    </edge>
    <edge id=":10584112894_0" function="internal">
        <lane id=":10584112894_0_0" index="0" disallow="tram rail_urban rail rail_electric rail_fast ship container cable_car subway aircraft wheelchair scooter drone" speed="8.33" length="14.41" shape="1055.88,2401.92 1041.48,2401.63"/>
    </edge>
    <edge id=":10584112894_1" function="internal">
        <lane id=":10584112894_1_0" index="0" disallow="tram rail_urban rail rail_electric rail_fast ship container cable_car subway aircraft wheelchair scooter drone" speed="9.06" length="14.62" shape="1055.88,2401.92 1052.41,2401.22 1049.63,2399.42 1047.54,2396.54 1046.13,2392.58"/>
    </edge>
    <edge id=":10584112894_2" function="internal">
        <lane id=":10584112894_2_0" index="0" disallow="tram rail_urban rail rail_electric rail_fast ship container cable_car subway aircraft wheelchair scooter drone" speed="7.73" length="10.43" shape="1049.25,2391.85 1050.26,2394.77 1051.72,2396.89 1053.64,2398.21 1056.02,2398.72"/>
    </edge>
    <edge id=":10584112894_3" function="internal">
        <lane id=":10584112894_3_0" index="0" disallow="tram rail_urban rail rail_electric rail_fast ship container cable_car subway aircraft wheelchair scooter drone" speed="7.65" length="15.16" shape="1049.25,2391.85 1049.62,2396.14 1048.46,2399.20 1045.74,2401.03 1041.48,2401.63"/>
    </edge>
    <edge id=":10584112894_4" function="internal">
        <lane id=":10584112894_4_0" index="0" disallow="tram rail_urban rail rail_electric rail_fast ship container cable_car subway aircraft wheelchair scooter drone" speed="6.06" length="9.07" shape="1041.48,2398.43 1044.03,2398.07 1045.66,2396.97 1046.36,2395.14 1046.13,2392.58"/>
    </edge>
    <edge id=":10584112894_5" function="internal">
        <lane id=":10584112894_5_0" index="0" disallow="tram rail_urban rail rail_electric rail_fast ship container cable_car subway aircraft wheelchair scooter drone" speed="8.33" length="14.54" shape="1041.48,2398.43 1056.02,2398.72"/>
    </edge>
    <edge id=":10929758472_0" function="internal">
        <lane id=":10929758472_0_0" index="0" disallow="tram rail_urban rail rail_electric rail_fast ship container cable_car subway aircraft wheelchair scooter drone" speed="8.33" length="12.74" shape="1647.48,2365.43 1646.18,2352.76"/>
    </edge>
    <edge id=":10929758472_1" function="internal">
        <lane id=":10929758472_1_0" index="0" allow="pedestrian delivery bicycle" speed="6.95" length="3.39" shape="1647.48,2365.43 1647.66,2362.34 1647.79,2362.08"/>
    </edge>
    <edge id=":10929758472_6" function="internal">
        <lane id=":10929758472_6_0" index="0" allow="pedestrian delivery bicycle" speed="6.95" length="9.73" shape="1647.79,2362.08 1648.92,2359.68 1651.25,2357.45 1654.65,2355.64"/>
    </edge>
    <edge id=":10929758472_2" function="internal">
        <lane id=":10929758472_2_0" index="0" allow="pedestrian bus delivery bicycle" speed="6.95" length="8.96" shape="1655.85,2358.60 1653.41,2359.86 1651.73,2361.37 1650.82,2363.11 1650.66,2365.09"/>
    </edge>
    <edge id=":10929758472_3" function="internal">
        <lane id=":10929758472_3_0" index="0" allow="pedestrian bus delivery bicycle" speed="6.95" length="13.96" shape="1655.85,2358.60 1651.97,2359.57 1649.06,2358.91 1647.13,2356.64 1646.18,2352.76"/>
    </edge>
    <edge id=":10929758472_4" function="internal">
        <lane id=":10929758472_4_0" index="0" allow="pedestrian delivery bicycle" speed="5.54" length="7.63" shape="1649.36,2352.44 1649.88,2354.57 1650.94,2355.81 1652.53,2356.16 1654.65,2355.64"/>
    </edge>
    <edge id=":10929758472_5" function="internal">
        <lane id=":10929758472_5_0" index="0" disallow="tram rail_urban rail rail_electric rail_fast ship container cable_car subway aircraft wheelchair scooter drone" speed="8.33" length="12.72" shape="1649.36,2352.44 1650.66,2365.09"/>
    </edge>
    <edge id=":11189588635_0" function="internal">
        <lane id=":11189588635_0_0" index="0" disallow="tram rail_urban rail rail_electric rail_fast ship container cable_car subway aircraft wheelchair scooter drone" speed="5.36" length="5.68" shape="1062.70,2705.86 1062.70,2704.59 1062.63,2702.76 1062.38,2701.11 1061.82,2700.40"/>
    </edge>
    <edge id=":11189588635_1" function="internal">
        <lane id=":11189588635_1_0" index="0" disallow="tram rail_urban rail rail_electric rail_fast ship container cable_car subway aircraft wheelchair scooter drone" speed="8.01" length="13.93" shape="1062.70,2705.86 1063.17,2702.08 1064.72,2699.33 1067.36,2697.59 1071.10,2696.88"/>
    </edge>
    <edge id=":11189588635_2" function="internal">
        <lane id=":11189588635_2_0" index="0" disallow="tram rail_urban rail rail_electric rail_fast ship container cable_car subway aircraft wheelchair scooter drone" speed="6.52" length="8.87" shape="1071.25,2700.08 1068.87,2700.53 1067.19,2701.64 1066.20,2703.39 1065.90,2705.80"/>
    </edge>
    <edge id=":11189588635_3" function="internal">
        <lane id=":11189588635_3_0" index="0" disallow="tram rail_urban rail rail_electric rail_fast ship container cable_car subway aircraft wheelchair scooter drone" speed="13.89" length="9.44" shape="1071.25,2700.08 1061.82,2700.40"/>
    </edge>
    <edge id=":11189588635_4" function="internal">
        <lane id=":11189588635_4_0" index="0" disallow="tram rail_urban rail rail_electric rail_fast ship container cable_car subway aircraft wheelchair scooter drone" speed="13.89" length="9.27" shape="1061.84,2697.20 1071.10,2696.88"/>
    </edge>
    <edge id=":11189588635_5" function="internal">
        <lane id=":11189588635_5_0" index="0" disallow="tram rail_urban rail rail_electric rail_fast ship container cable_car subway aircraft wheelchair scooter drone" speed="7.00" length="1.80" shape="1061.84,2697.20 1063.56,2697.74"/>
    </edge>
    <edge id=":11189588635_6" function="internal">
        <lane id=":11189588635_6_0" index="0" disallow="tram rail_urban rail rail_electric rail_fast ship container cable_car subway aircraft wheelchair scooter drone" speed="7.00" length="8.61" shape="1063.56,2697.74 1064.81,2699.36 1065.59,2702.04 1065.90,2705.80"/>
    </edge>
    <edge id=":11189600431_0" function="internal">
        <lane id=":11189600431_0_0" index="0" disallow="tram rail_urban rail rail_electric rail_fast ship container cable_car subway aircraft wheelchair scooter drone" speed="6.18" length="9.05" shape="1153.90,2927.57 1152.08,2925.80 1150.20,2925.15 1148.27,2925.63 1146.29,2927.22"/>
    </edge>
    <edge id=":11189600431_1" function="internal">
        <lane id=":11189600431_1_0" index="0" disallow="tram rail_urban rail rail_electric rail_fast ship container cable_car subway aircraft wheelchair scooter drone" speed="9.23" length="14.31" shape="1153.90,2927.57 1151.77,2924.10 1150.83,2920.73 1151.08,2917.47 1152.51,2914.31"/>
    </edge>
    <edge id=":11189600431_2" function="internal">
        <lane id=":11189600431_2_0" index="0" disallow="tram rail_urban rail rail_electric rail_fast ship container cable_car subway aircraft wheelchair scooter drone" speed="7.92" length="10.33" shape="1155.19,2916.06 1154.21,2918.27 1154.10,2920.60 1154.84,2923.05 1156.43,2925.62"/>
    </edge>
    <edge id=":11189600431_3" function="internal">
        <lane id=":11189600431_3_0" index="0" disallow="tram rail_urban rail rail_electric rail_fast ship container cable_car subway aircraft wheelchair scooter drone" speed="27.78" length="14.29" shape="1155.19,2916.06 1153.13,2919.06 1150.99,2921.84 1148.74,2924.52 1146.29,2927.22"/>
    </edge>
    <edge id=":11189600431_4" function="internal">
        <lane id=":11189600431_4_0" index="0" disallow="tram rail_urban rail rail_electric rail_fast ship container cable_car subway aircraft wheelchair scooter drone" speed="27.78" length="13.74" shape="1143.95,2925.04 1146.34,2922.41 1148.48,2919.87 1150.50,2917.24 1152.51,2914.31"/>
    </edge>
    <edge id=":11189600431_5" function="internal">
        <lane id=":11189600431_5_0" index="0" disallow="tram rail_urban rail rail_electric rail_fast ship container cable_car subway aircraft wheelchair scooter drone" speed="7.74" length="4.17" shape="1143.95,2925.04 1147.20,2922.42"/>
    </edge>
    <edge id=":11189600431_6" function="internal">
        <lane id=":11189600431_6_0" index="0" disallow="tram rail_urban rail rail_electric rail_fast ship container cable_car subway aircraft wheelchair scooter drone" speed="7.74" length="10.68" shape="1147.20,2922.42 1150.36,2921.65 1153.44,2922.71 1156.43,2925.62"/>
    </edge>
    <edge id=":11189638503_0" function="internal">
        <lane id=":11189638503_0_0" index="0" allow="pedestrian delivery bicycle" speed="5.56" length="9.05" shape="1536.22,2442.00 1527.18,2441.39"/>
    </edge>
    <edge id=":11189638503_1" function="internal">
        <lane id=":11189638503_1_0" index="0" allow="pedestrian delivery bicycle" speed="5.56" length="10.23" shape="1536.22,2442.00 1533.49,2441.32 1531.65,2439.93 1530.70,2437.83 1530.63,2435.02"/>
    </edge>
    <edge id=":11189638503_2" function="internal">
        <lane id=":11189638503_2_0" index="0" allow="pedestrian delivery bicycle" speed="5.03" length="5.02" shape="1533.81,2435.39 1533.84,2436.77 1534.31,2437.80 1535.21,2438.48 1536.55,2438.82"/>
    </edge>
    <edge id=":11189638503_3" function="internal">
        <lane id=":11189638503_3_0" index="0" allow="pedestrian delivery bicycle" speed="5.56" length="10.00" shape="1533.81,2435.39 1533.12,2438.08 1531.79,2439.98 1529.81,2441.08 1527.18,2441.39"/>
    </edge>
    <edge id=":11189638503_4" function="internal">
        <lane id=":11189638503_4_0" index="0" allow="pedestrian delivery bicycle" speed="5.26" length="5.16" shape="1527.28,2438.19 1528.60,2438.02 1529.60,2437.44 1530.27,2436.44 1530.63,2435.02"/>
    </edge>
    <edge id=":11189638503_5" function="internal">
        <lane id=":11189638503_5_0" index="0" allow="pedestrian delivery bicycle" speed="5.56" length="9.29" shape="1527.28,2438.19 1536.55,2438.82"/>
    </edge>
    <edge id=":11189638508_0" function="internal">
        <lane id=":11189638508_0_0" index="0" allow="pedestrian delivery bicycle" speed="5.56" length="6.27" shape="1489.61,2441.54 1488.05,2441.98 1486.92,2442.84 1486.21,2444.14 1485.93,2445.87"/>
    </edge>
    <edge id=":11189638508_1" function="internal">
        <lane id=":11189638508_1_0" index="0" allow="pedestrian delivery bicycle" speed="5.56" length="10.19" shape="1489.61,2441.54 1479.50,2442.79"/>
    </edge>
    <edge id=":11189638508_2" function="internal">
        <lane id=":11189638508_2_0" index="0" allow="pedestrian delivery bicycle" speed="5.56" length="10.51" shape="1489.61,2441.54 1486.70,2441.48 1484.57,2440.50 1483.23,2438.57 1482.66,2435.72"/>
    </edge>
    <edge id=":11189638508_3" function="internal">
        <lane id=":11189638508_3_0" index="0" allow="pedestrian delivery bicycle" speed="4.97" length="5.08" shape="1485.85,2435.55 1486.13,2436.93 1486.78,2437.86 1487.81,2438.34 1489.22,2438.37"/>
    </edge>
    <edge id=":11189638508_4" function="internal">
        <lane id=":11189638508_4_0" index="0" allow="pedestrian delivery bicycle" speed="5.56" length="10.33" shape="1485.85,2435.55 1486.00,2438.57 1486.06,2440.71 1486.03,2442.85 1485.93,2445.87"/>
    </edge>
    <edge id=":11189638508_5" function="internal">
        <lane id=":11189638508_5_0" index="0" allow="pedestrian delivery bicycle" speed="5.56" length="10.82" shape="1485.85,2435.55 1485.59,2438.41 1484.44,2440.57 1482.41,2442.03 1479.50,2442.79"/>
    </edge>
    <edge id=":11189638508_6" function="internal">
        <lane id=":11189638508_6_0" index="0" allow="pedestrian delivery bicycle" speed="5.54" length="5.92" shape="1479.11,2439.62 1480.73,2439.20 1481.86,2438.41 1482.51,2437.25 1482.66,2435.72"/>
    </edge>
    <edge id=":11189638508_7" function="internal">
        <lane id=":11189638508_7_0" index="0" allow="pedestrian delivery bicycle" speed="5.56" length="10.19" shape="1479.11,2439.62 1489.22,2438.37"/>
    </edge>
    <edge id=":11189638508_8" function="internal">
        <lane id=":11189638508_8_0" index="0" allow="pedestrian delivery bicycle" speed="5.56" length="10.99" shape="1479.11,2439.62 1482.19,2439.68 1484.35,2440.74 1485.60,2442.81 1485.93,2445.87"/>
    </edge>
    <edge id=":11189638508_9" function="internal">
        <lane id=":11189638508_9_0" index="0" allow="pedestrian delivery bicycle" speed="4.89" length="5.20" shape="1482.73,2445.75 1482.57,2444.30 1481.98,2443.33 1480.96,2442.82 1479.50,2442.79"/>
    </edge>
    <edge id=":11189638508_10" function="internal">
        <lane id=":11189638508_10_0" index="0" allow="pedestrian delivery bicycle" speed="5.56" length="10.04" shape="1482.73,2445.75 1482.83,2442.78 1482.86,2440.74 1482.81,2438.69 1482.66,2435.72"/>
    </edge>
    <edge id=":11189638508_11" function="internal">