<additional>
    <poly id="building_0" type="building" color="200,200,200" fill="true" layer="2" shape="2102.15,2232.50 2107.68,2249.03 2122.83,2245.62 2117.72,2229.97 2102.15,2232.50"/>
    <poly id="water_1" type="water" color="170,211,223" fill="true" layer="0" shape="1747.19,2853.95 1712.31,2800.08 1706.81,2778.35 1707.77,2764.26 1712.26,2752.85 1729.46,2740.31 1802.57,2707.53 1815.79,2709.55 1832.92,2721.77 1838.12,2734.02 1835.75,2747.60 1823.47,2780.39 1828.10,2787.08 1835.24,2788.09 1841.13,2791.05 1844.62,2801.63 1840.45,2809.23 1835.69,2814.49 1840.40,2818.62 1845.66,2818.86 1850.98,2817.71 1855.09,2821.84 1853.94,2827.50 1846.81,2836.85 1833.14,2852.62 1781.39,2864.99 1762.50,2861.38 1747.19,2853.95"/>
    <poly id="building_2" type="building" color="200,200,200" fill="true" layer="2" shape="1418.94,2945.54 1426.19,2961.67 1431.68,2973.87 1434.88,2980.52 1446.52,2975.18 1431.35,2939.92 1434.60,2932.85 1439.98,2930.53 1479.30,2913.54 1473.65,2900.88 1437.63,2917.15 1422.24,2924.19 1416.01,2938.66 1418.94,2945.54"/>
    <poly id="water_3" type="water" color="170,211,223" fill="true" layer="0" shape="945.57,2976.34 953.84,2976.38 967.43,2975.28 974.83,2974.15 982.53,2969.20 987.28,2963.35 995.02,2952.53 996.53,2945.21 998.65,2934.65 998.67,2929.95 969.97,2941.84 955.75,2948.23 944.22,2951.98 937.11,2954.88 936.21,2958.40 937.66,2963.09 940.88,2969.27 945.57,2976.34"/>
    <poly id="park_4" type="park" color="200,250,200" fill="true" layer="-1" shape="1224.96,2456.53 1220.23,2431.43 1261.62,2412.98 1276.70,2423.72 1285.96,2433.00 1289.19,2456.58 1264.85,2460.77 1224.96,2456.53"/>
    <poly id="building_5" type="building" color="200,200,200" fill="true" layer="2" shape="1198.82,2567.41 1219.38,2569.31 1220.98,2559.35 1199.14,2556.69 1198.82,2567.41"/>
    <poly id="building_6" type="building" color="200,200,200" fill="true" layer="2" shape="1467.51,2322.44 1483.72,2310.66 1464.23,2284.15 1448.01,2295.92 1467.51,2322.44"/>
    <poly id="building_7" type="building" color="200,200,200" fill="true" layer="2" shape="1463.55,2323.45 1450.63,2331.08 1433.92,2303.17 1446.84,2295.54 1463.55,2323.45"/>
    <poly id="building_8" type="building" color="200,200,200" fill="true" layer="2" shape="1458.58,2266.27 1471.30,2258.93 1462.38,2243.68 1449.66,2251.02 1458.58,2266.27"/>
    <poly id="building_9" type="building" color="200,200,200" fill="true" layer="2" shape="1475.15,2258.44 1486.19,2250.92 1476.26,2236.51 1465.21,2244.03 1475.15,2258.44"/>
    <poly id="building_10" type="building" color="200,200,200" fill="true" layer="2" shape="1525.41,2289.50 1535.75,2282.47 1526.09,2268.45 1521.00,2271.91 1524.16,2276.49 1518.90,2280.05 1525.41,2289.50"/>
    <poly id="building_11" type="building" color="200,200,200" fill="true" layer="2" shape="1511.34,2276.91 1525.88,2266.19 1516.75,2253.97 1507.46,2260.81 1502.21,2264.69 1511.34,2276.91"/>
    <poly id="building_12" type="building" color="200,200,200" fill="true" layer="2" shape="1516.28,2251.98 1506.35,2259.96 1498.11,2249.84 1508.04,2241.86 1516.28,2251.98"/>
    <poly id="building_13" type="building" color="200,200,200" fill="true" layer="2" shape="1490.39,2269.67 1500.35,2263.48 1492.09,2250.38 1482.15,2256.56 1490.39,2269.67"/>
    <poly id="building_14" type="building" color="200,200,200" fill="true" layer="2" shape="1489.66,2270.29 1480.23,2275.65 1472.69,2262.54 1482.12,2257.18 1489.66,2270.29"/>
    <poly id="building_15" type="building" color="200,200,200" fill="true" layer="2" shape="1583.92,2235.82 1594.47,2226.46 1581.98,2212.55 1571.43,2221.93 1583.92,2235.82"/>
    <poly id="building_16" type="building" color="200,200,200" fill="true" layer="2" shape="1557.41,2190.84 1570.43,2177.05 1562.95,2170.08 1549.93,2183.85 1557.41,2190.84"/>
    <poly id="building_17" type="building" color="200,200,200" fill="true" layer="2" shape="1560.44,2189.59 1575.96,2180.44 1583.92,2193.78 1568.40,2202.92 1560.44,2189.59"/>
    <poly id="building_18" type="building" color="200,200,200" fill="true" layer="2" shape="1396.93,2214.06 1415.89,2197.24 1399.83,2179.37 1380.88,2196.19 1396.93,2214.06"/>
    <poly id="building_19" type="building" color="200,200,200" fill="true" layer="2" shape="1327.61,2220.23 1342.80,2207.60 1333.03,2196.00 1317.84,2208.63 1327.61,2220.23"/>
    <poly id="building_20" type="building" color="200,200,200" fill="true" layer="2" shape="1329.57,2222.10 1336.42,2231.47 1354.35,2218.51 1347.49,2209.14 1329.57,2222.10"/>
    <poly id="building_21" type="building" color="200,200,200" fill="true" layer="2" shape="1516.91,2120.32 1532.79,2107.47 1524.26,2097.07 1508.38,2109.92 1516.91,2120.32"/>
    <poly id="building_22" type="building" color="200,200,200" fill="true" layer="2" shape="1571.67,2157.76 1581.99,2165.88 1594.51,2150.18 1584.19,2142.06 1571.67,2157.76"/>
    <poly id="building_23" type="building" color="200,200,200" fill="true" layer="2" shape="1532.98,2208.63 1538.39,2212.39 1544.50,2203.69 1537.20,2198.63 1531.10,2207.33 1532.98,2208.63"/>
    <poly id="building_24" type="building" color="200,200,200" fill="true" layer="2" shape="1490.83,2202.73 1499.99,2194.21 1490.43,2184.06 1481.26,2192.59 1490.83,2202.73"/>
    <poly id="building_25" type="building" color="200,200,200" fill="true" layer="2" shape="1802.38,2654.82 1811.07,2654.20 1809.78,2636.27 1801.08,2636.89 1802.38,2654.82"/>
    <poly id="building_26" type="building" color="200,200,200" fill="true" layer="2" shape="1040.62,2280.88 1048.55,2290.32 1052.98,2290.34 1060.09,2285.97 1071.95,2276.64 1080.55,2269.94 1077.33,2264.34 1072.04,2257.87 1040.62,2280.88"/>
    <poly id="building_27" type="building" color="200,200,200" fill="true" layer="2" shape="1346.22,2580.15 1345.60,2569.72 1320.72,2574.14 1322.95,2585.78 1346.22,2580.15"/>
    <poly id="building_28" type="building" color="200,200,200" fill="true" layer="2" shape="1404.52,2573.57 1404.58,2561.83 1430.70,2552.67 1433.77,2564.64 1404.52,2573.57"/>
    <poly id="residential_29" type="residential" color="220,220,220" fill="true" layer="-1" shape="862.11,2736.81 919.10,2721.52 971.98,2702.10 980.10,2786.47 889.27,2815.52 862.11,2736.81"/>
    <poly id="building_30" type="building" color="200,200,200" fill="true" layer="2" shape="970.93,2874.65 994.89,2866.08 988.33,2848.00 964.38,2856.56 970.93,2874.65"/>
    <poly id="water_31" type="water" color="170,211,223" fill="true" layer="0" shape="1041.81,2485.93 1026.56,2451.14 1021.24,2413.09 1024.68,2402.96 1061.64,2403.58 1071.66,2405.69 1094.37,2447.11 1092.62,2467.35 1041.81,2485.93"/>
    <poly id="building_32" type="building" color="200,200,200" fill="true" layer="2" shape="2032.75,2030.95 2041.53,2045.96 2045.09,2042.46 2053.38,2037.51 2049.29,2029.57 2044.31,2022.80 2038.36,2029.52 2032.75,2030.95"/>
    <poly id="building_33" type="building" color="200,200,200" fill="true" layer="2" shape="1771.27,2482.67 1761.91,2465.02 1762.52,2462.60 1768.76,2455.46 1782.05,2454.56 1789.64,2471.03 1771.27,2482.67"/>
    <poly id="building_34" type="building" color="200,200,200" fill="true" layer="2" shape="1354.88,2483.68 1351.67,2475.34 1364.58,2470.43 1367.79,2478.77 1354.88,2483.68"/>
    <poly id="building_35" type="building" color="200,200,200" fill="true" layer="2" shape="1220.91,2362.65 1227.95,2370.31 1237.42,2366.84 1238.63,2360.97 1230.40,2354.48 1220.91,2362.65"/>
    <poly id="building_36" type="building" color="200,200,200" fill="true" layer="2" shape="1086.73,2146.59 1090.30,2140.75 1097.35,2150.17 1103.82,2154.90 1098.78,2160.18 1095.54,2156.62 1086.73,2146.59"/>
    <poly id="education_37" type="education" color="255,255,228" fill="true" layer="-1" shape="1128.54,2287.65 1135.00,2297.07 1143.20,2310.61 1146.69,2318.26 1154.41,2311.25 1145.63,2294.78 1142.12,2287.72 1148.33,2288.25 1140.98,2279.40 1135.08,2280.65 1128.54,2287.65"/>
    <poly id="building_38" type="building" color="200,200,200" fill="true" layer="2" shape="986.50,2110.29 983.00,2099.71 993.65,2096.83 1003.12,2093.36 1012.57,2092.82 1021.96,2104.60 1010.73,2106.31 997.72,2109.17 990.86,2109.86 986.50,2110.29"/>
    <poly id="residential_39" type="residential" color="220,220,220" fill="true" layer="-1" shape="1396.90,2642.07 1382.45,2638.62 1377.41,2635.24 1373.96,2616.88 1387.24,2611.80 1400.02,2609.37 1408.97,2607.58 1414.58,2605.63 1418.73,2605.21 1428.78,2602.63 1430.77,2634.11 1424.99,2636.64 1419.37,2638.95 1410.06,2639.87 1396.90,2642.07"/>
    <poly id="building_40" type="building" color="200,200,200" fill="true" layer="2" shape="1292.01,2384.15 1288.56,2379.91 1283.46,2373.65 1288.60,2369.52 1295.03,2364.37 1300.82,2371.48 1303.57,2374.88 1297.46,2379.78 1292.01,2384.15"/>
    <poly id="building_41" type="building" color="200,200,200" fill="true" layer="2" shape="1591.26,2134.13 1595.07,2137.08 1601.91,2129.19 1606.96,2123.93 1600.45,2124.78 1598.41,2120.37 1592.77,2127.39 1595.11,2130.03 1591.26,2134.13"/>
    <poly id="building_42" type="building" color="200,200,200" fill="true" layer="2" shape="2465.74,2033.79 2464.88,2027.91 2466.69,2022.35 2463.43,2022.92 2463.16,2019.40 2466.41,2017.66 2465.84,2013.84 2469.67,2015.03 2472.31,2017.97 2474.66,2022.97 2476.99,2027.39 2475.19,2032.08 2465.74,2033.79"/>
    <poly id="building_43" type="building" color="200,200,200" fill="true" layer="2" shape="1870.92,2221.19 1874.54,2213.28 1883.69,2217.42 1880.07,2225.31 1870.92,2221.19"/>
    <poly id="building_44" type="building" color="200,200,200" fill="true" layer="2" shape="1285.76,2473.69 1285.73,2480.44 1299.02,2480.22 1310.25,2478.52 1315.28,2476.19 1312.95,2471.48 1299.35,2472.59 1285.76,2473.69"/>
    <poly id="building_45" type="building" color="200,200,200" fill="true" layer="2" shape="928.29,2073.32 926.14,2060.48 923.65,2045.64 930.53,2044.51 931.54,2050.57 938.48,2049.42 944.85,2048.37 946.90,2060.57 948.47,2069.98 938.15,2071.69 928.29,2073.32"/>
    <poly id="building_46" type="building" color="200,200,200" fill="true" layer="2" shape="1679.67,2211.11 1679.42,2202.60 1685.35,2199.70 1691.85,2197.97 1692.09,2208.82 1685.59,2210.55 1679.67,2211.11"/>
    <poly id="building_47" type="building" color="200,200,200" fill="true" layer="2" shape="1532.93,2965.44 1534.58,2970.51 1536.71,2969.83 1536.93,2970.52 1560.36,2963.00 1560.61,2963.78 1563.93,2962.71 1563.44,2961.21 1569.50,2959.28 1566.16,2949.03 1565.46,2949.26 1565.03,2947.93 1560.09,2949.52 1558.33,2950.07 1556.60,2950.63 1551.30,2952.34 1551.77,2953.81 1531.29,2960.38 1532.93,2965.44"/>
    <poly id="building_48" type="building" color="200,200,200" fill="true" layer="2" shape="1524.30,2979.98 1524.47,2983.55 1524.60,2986.47 1523.58,2986.52 1523.67,2988.42 1522.84,2988.45 1523.12,2994.89 1543.02,2994.02 1542.97,2992.73 1544.65,2992.65 1548.73,2992.47 1548.12,2978.94 1541.06,2979.24 1524.30,2979.98"/>
    <poly id="building_49" type="building" color="200,200,200" fill="true" layer="2" shape="1668.63,2377.37 1689.14,2367.15 1688.59,2359.06 1667.62,2370.02 1668.63,2377.37"/>
    <poly id="building_50" type="building" color="200,200,200" fill="true" layer="2" shape="2159.36,2046.53 2152.91,2036.52 2164.77,2027.77 2171.23,2035.44 2165.30,2041.27 2159.36,2046.53"/>
    <poly id="building_51" type="building" color="200,200,200" fill="true" layer="2" shape="1738.98,2699.89 1735.52,2683.43 1743.21,2681.71 1749.71,2681.16 1753.17,2697.03 1745.47,2701.09 1738.98,2699.89"/>
    <poly id="building_52" type="building" color="200,200,200" fill="true" layer="2" shape="2219.85,2577.93 2216.36,2566.17 2228.20,2562.71 2231.09,2573.88 2219.85,2577.93"/>
    <poly id="building_53" type="building" color="200,200,200" fill="true" layer="2" shape="2451.53,2554.47 2445.70,2538.59 2452.81,2535.70 2458.62,2552.74 2451.53,2554.47"/>
    <poly id="building_54" type="building" color="200,200,200" fill="true" layer="2" shape="1250.24,2324.27 1244.08,2315.44 1252.09,2308.43 1259.43,2316.39 1255.58,2319.90 1250.24,2324.27"/>
    <poly id="building_55" type="building" color="200,200,200" fill="true" layer="2" shape="1211.50,2222.23 1218.38,2229.23 1230.34,2217.66 1223.47,2210.65 1216.70,2217.19 1211.50,2222.23"/>
    <poly id="building_56" type="building" color="200,200,200" fill="true" layer="2" shape="1652.16,2623.05 1649.86,2612.17 1654.30,2608.97 1657.55,2608.40 1662.22,2619.28 1657.48,2621.60 1652.16,2623.05"/>
    <poly id="building_57" type="building" color="200,200,200" fill="true" layer="2" shape="1133.90,2953.99 1138.95,2947.57 1150.43,2955.55 1145.08,2962.57 1133.90,2953.99"/>
    <poly id="building_58" type="building" color="200,200,200" fill="true" layer="2" shape="1243.61,2813.84 1243.17,2800.21 1261.36,2799.64 1261.80,2813.26 1243.61,2813.84"/>
    <poly id="building_59" type="building" color="200,200,200" fill="true" layer="2" shape="1508.82,2627.74 1518.67,2625.56 1515.34,2620.65 1507.95,2621.06 1503.28,2615.03 1495.88,2618.78 1500.99,2624.58 1504.12,2627.93 1505.90,2627.05 1507.67,2627.47 1508.82,2627.74"/>
    <poly id="building_60" type="building" color="200,200,200" fill="true" layer="2" shape="1583.88,2736.40 1588.20,2739.36 1590.32,2736.31 1592.65,2732.97 1588.32,2730.00 1586.32,2732.88 1583.88,2736.40"/>
    <poly id="building_61" type="building" color="200,200,200" fill="true" layer="2" shape="1569.98,2724.23 1581.82,2730.23 1585.02,2723.99 1575.16,2719.01 1573.17,2718.00 1571.52,2721.24 1569.98,2724.23"/>
    <poly id="building_62" type="building" color="200,200,200" fill="true" layer="2" shape="2353.77,2574.78 2362.27,2571.12 2370.69,2566.31 2382.83,2561.65 2389.58,2560.87 2390.13,2568.22 2389.21,2575.55 2387.40,2582.29 2387.66,2590.21 2380.56,2590.76 2370.84,2587.19 2363.17,2584.81 2357.57,2582.43 2356.11,2579.20 2353.77,2574.78"/>
    <poly id="building_63" type="building" color="200,200,200" fill="true" layer="2" shape="2374.97,2278.61 2372.07,2268.91 2382.43,2264.85 2386.22,2275.15 2374.97,2278.61"/>
    <poly id="building_64" type="building" color="200,200,200" fill="true" layer="2" shape="2213.05,2465.28 2210.44,2456.46 2217.83,2453.27 2221.68,2452.12 2224.59,2460.05 2220.16,2461.50 2220.44,2464.13 2216.59,2464.71 2213.05,2465.28"/>
    <poly id="building_65" type="building" color="200,200,200" fill="true" layer="2" shape="2100.77,2081.54 2102.83,2088.76 2105.19,2097.03 2105.83,2099.29 2113.20,2097.21 2118.43,2095.73 2115.78,2086.46 2113.51,2078.51 2112.15,2073.78 2099.57,2077.33 2100.77,2081.54"/>
    <poly id="industrial_66" type="industrial" color="235,219,233" fill="true" layer="-1" shape="1665.06,2422.36 1752.80,2390.38 1777.09,2375.55 1732.04,2292.28 1650.30,2335.29 1652.44,2353.94 1656.80,2391.95 1665.06,2422.36"/>
    <poly id="building_67" type="building" color="200,200,200" fill="true" layer="2" shape="1432.83,2626.94 1435.42,2639.56 1448.44,2635.53 1448.17,2629.95 1445.84,2624.06 1442.31,2621.70 1437.57,2623.73 1432.83,2626.94"/>
    <poly id="building_68" type="building" color="200,200,200" fill="true" layer="2" shape="1034.91,2080.92 1045.27,2080.01 1052.28,2079.39 1051.52,2070.83 1050.76,2062.27 1041.87,2063.05 1033.39,2063.79 1034.21,2073.07 1034.91,2080.92"/>
    <poly id="building_69" type="building" color="200,200,200" fill="true" layer="2" shape="1383.24,2856.59 1387.60,2867.83 1389.98,2873.97 1393.80,2883.80 1402.02,2880.66 1412.73,2876.56 1407.17,2862.21 1403.16,2851.87 1400.79,2845.73 1399.94,2843.54 1396.03,2845.04 1393.15,2846.14 1387.83,2848.17 1381.01,2850.79 1383.24,2856.59"/>
    <poly id="building_70" type="building" color="200,200,200" fill="true" layer="2" shape="1172.51,2301.00 1184.82,2321.01 1193.12,2315.48 1180.24,2293.99 1172.51,2301.00"/>
    <poly id="building_71" type="building" color="200,200,200" fill="true" layer="2" shape="1229.15,2315.07 1233.01,2312.75 1237.75,2308.67 1241.89,2307.22 1245.13,2308.71 1244.24,2311.34 1239.50,2314.54 1234.76,2317.75 1229.15,2315.07"/>
    <poly id="building_72" type="building" color="200,200,200" fill="true" layer="2" shape="1280.51,2284.66 1283.13,2291.10 1286.93,2295.79 1288.67,2299.60 1293.99,2295.82 1297.52,2294.38 1300.78,2290.60 1302.55,2289.15 1301.40,2284.47 1294.96,2277.72 1293.51,2273.03 1285.25,2277.37 1282.30,2279.99 1280.51,2284.66"/>
    <poly id="building_73" type="building" color="200,200,200" fill="true" layer="2" shape="1208.44,2286.04 1208.73,2288.96 1211.35,2293.07 1213.98,2295.71 1217.82,2293.69 1220.47,2291.94 1224.30,2290.21 1226.66,2289.35 1226.39,2284.67 1224.05,2284.07 1220.81,2284.36 1216.09,2284.62 1212.57,2285.19 1208.44,2286.04"/>
    <poly id="building_74" type="building" color="200,200,200" fill="true" layer="2" shape="1304.93,2280.98 1307.55,2285.08 1310.48,2288.32 1315.49,2285.41 1317.86,2283.68 1317.28,2280.17 1313.49,2274.31 1304.93,2280.98"/>
    <poly id="building_75" type="building" color="200,200,200" fill="true" layer="2" shape="1286.01,2201.28 1302.38,2220.47 1312.19,2212.21 1295.82,2193.02 1286.01,2201.28"/>
    <poly id="building_76" type="building" color="200,200,200" fill="true" layer="2" shape="1272.12,2212.17 1272.66,2212.16 1276.86,2212.04 1277.00,2217.10 1277.03,2218.15 1286.09,2217.90 1285.81,2207.97 1282.87,2208.06 1278.57,2208.18 1272.00,2208.35 1272.12,2212.17"/>
    <poly id="building_77" type="building" color="200,200,200" fill="true" layer="2" shape="1313.67,2226.59 1319.20,2221.79 1328.04,2231.86 1322.51,2236.65 1313.67,2226.59"/>
    <poly id="building_78" type="building" color="200,200,200" fill="true" layer="2" shape="1325.08,2244.96 1328.18,2246.90 1330.88,2248.46 1333.41,2245.19 1334.98,2243.47 1335.19,2240.77 1332.49,2236.90 1329.76,2239.78 1327.42,2241.50 1325.86,2243.23 1325.08,2244.96"/>
    <poly id="building_79" type="building" color="200,200,200" fill="true" layer="2" shape="1338.00,2259.86 1340.73,2257.76 1342.88,2255.65 1344.24,2253.53 1345.99,2253.54 1347.72,2255.29 1348.88,2257.03 1350.43,2258.00 1351.97,2260.32 1353.31,2262.84 1354.67,2264.57 1352.33,2266.11 1350.18,2267.64 1346.88,2270.13 1342.42,2269.72 1339.12,2267.97 1337.58,2265.26 1336.05,2262.36 1338.00,2259.86"/>
    <poly id="building_80" type="building" color="200,200,200" fill="true" layer="2" shape="1202.59,2237.21 1212.45,2245.84 1218.58,2238.92 1208.74,2230.29 1202.59,2237.21"/>
    <poly id="building_81" type="building" color="200,200,200" fill="true" layer="2" shape="1215.34,2248.09 1220.54,2251.37 1229.76,2236.92 1224.57,2233.66 1215.34,2248.09"/>
    <poly id="building_82" type="building" color="200,200,200" fill="true" layer="2" shape="1223.67,2258.83 1229.02,2263.80 1239.80,2252.36 1234.45,2247.39 1223.67,2258.83"/>
    <poly id="building_83" type="building" color="200,200,200" fill="true" layer="2" shape="1231.64,2267.92 1232.92,2268.82 1235.98,2270.99 1237.95,2268.27 1240.80,2264.30 1243.25,2260.91 1244.85,2258.69 1240.50,2255.61 1238.15,2258.87 1235.73,2262.23 1234.06,2264.56 1232.63,2266.55 1231.64,2267.92"/>
    <poly id="building_84" type="building" color="200,200,200" fill="true" layer="2" shape="1015.21,2945.42 1014.18,2950.64 1027.08,2953.15 1029.90,2938.92 1016.99,2936.41 1015.21,2945.42"/>
    <poly id="building_85" type="building" color="200,200,200" fill="true" layer="2" shape="1034.19,2937.37 1030.53,2952.36 1042.88,2955.32 1046.53,2940.33 1034.19,2937.37"/>
    <poly id="building_86" type="building" color="200,200,200" fill="true" layer="2" shape="994.94,2881.99 995.45,2887.72 996.07,2894.82 996.48,2899.40 997.00,2905.21 997.91,2915.45 1006.66,2914.68 1013.69,2914.07 1017.53,2913.73 1017.01,2907.86 1016.25,2899.18 1015.73,2893.39 1015.13,2886.69 1014.57,2880.28 1010.93,2880.60 1006.52,2880.98 1000.92,2881.47 994.94,2881.99"/>
    <poly id="building_87" type="building" color="200,200,200" fill="true" layer="2" shape="989.69,2871.94 985.13,2873.30 980.92,2874.54 973.65,2876.71 974.96,2881.07 976.47,2886.10 977.39,2889.15 980.79,2888.14 986.68,2886.39 993.43,2884.38 992.21,2880.29 990.88,2875.92 989.69,2871.94"/>
    <poly id="building_88" type="building" color="200,200,200" fill="true" layer="2" shape="974.93,2829.51 962.48,2828.57 961.66,2839.40 975.41,2840.44 976.23,2829.61 974.93,2829.51"/>
    <poly id="building_89" type="building" color="200,200,200" fill="true" layer="2" shape="1048.10,2945.46 1046.29,2956.90 1054.45,2958.17 1056.26,2946.73 1048.10,2945.46"/>
    <poly id="building_90" type="building" color="200,200,200" fill="true" layer="2" shape="1033.65,2919.04 1034.69,2931.43 1043.61,2930.69 1042.58,2918.30 1033.65,2919.04"/>
    <poly id="building_91" type="building" color="200,200,200" fill="true" layer="2" shape="1060.94,2911.08 1065.13,2921.35 1075.13,2917.32 1070.93,2907.05 1060.94,2911.08"/>
    <poly id="building_92" type="building" color="200,200,200" fill="true" layer="2" shape="1080.73,2939.63 1089.92,2950.30 1095.68,2945.40 1086.49,2934.74 1080.73,2939.63"/>
    <poly id="building_93" type="building" color="200,200,200" fill="true" layer="2" shape="1097.90,2923.63 1101.31,2930.20 1109.88,2925.81 1106.48,2919.24 1097.90,2923.63"/>
    <poly id="building_94" type="building" color="200,200,200" fill="true" layer="2" shape="898.32,2817.68 903.62,2830.53 911.30,2827.41 906.00,2814.56 898.32,2817.68"/>
    <poly id="building_95" type="building" color="200,200,200" fill="true" layer="2" shape="899.58,2779.31 900.98,2783.95 929.14,2776.65 928.75,2771.17 899.58,2779.31"/>
    <poly id="building_96" type="building" color="200,200,200" fill="true" layer="2" shape="902.31,2765.15 904.03,2770.60 913.30,2767.73 911.59,2762.26 902.31,2765.15"/>
    <poly id="building_97" type="building" color="200,200,200" fill="true" layer="2" shape="942.66,2723.63 928.83,2726.56 931.98,2741.21 945.80,2738.28 942.73,2723.96 942.66,2723.63"/>
    <poly id="building_98" type="building" color="200,200,200" fill="true" layer="2" shape="910.81,2354.12 894.71,2363.88 899.71,2371.99 915.80,2362.24 910.81,2354.12"/>
    <poly id="building_99" type="building" color="200,200,200" fill="true" layer="2" shape="904.73,2304.21 908.25,2311.44 917.19,2307.15 913.67,2299.92 904.73,2304.21"/>
    <poly id="building_100" type="building" color="200,200,200" fill="true" layer="2" shape="917.26,2290.92 923.29,2305.12 932.98,2301.07 926.95,2286.87 917.26,2290.92"/>
    <poly id="building_101" type="building" color="200,200,200" fill="true" layer="2" shape="939.61,2303.48 944.42,2318.91 953.26,2316.19 948.45,2300.76 939.61,2303.48"/>
    <poly id="building_102" type="building" color="200,200,200" fill="true" layer="2" shape="967.70,2299.22 956.52,2304.23 960.54,2313.09 971.73,2308.09 967.70,2299.22"/>
    <poly id="building_103" type="building" color="200,200,200" fill="true" layer="2" shape="945.00,2279.37 949.82,2290.94 961.01,2286.34 956.19,2274.77 945.00,2279.37"/>
    <poly id="building_104" type="building" color="200,200,200" fill="true" layer="2" shape="937.63,2229.04 922.94,2239.10 929.04,2247.88 943.73,2237.82 937.63,2229.04"/>
    <poly id="building_105" type="building" color="200,200,200" fill="true" layer="2" shape="923.89,2243.04 912.37,2247.94 914.95,2253.92 926.46,2249.02 923.89,2243.04"/>
    <poly id="building_106" type="building" color="200,200,200" fill="true" layer="2" shape="921.91,2228.18 926.32,2234.72 939.27,2226.09 934.86,2219.55 921.91,2228.18"/>
    <poly id="building_107" type="building" color="200,200,200" fill="true" layer="2" shape="919.50,2206.11 907.18,2206.74 907.68,2216.25 919.99,2215.61 919.50,2206.11"/>
    <poly id="building_108" type="building" color="200,200,200" fill="true" layer="2" shape="1196.16,1991.07 1204.35,2015.20 1187.74,2020.76 1179.55,1996.62 1196.16,1991.07"/>
    <poly id="building_109" type="building" color="200,200,200" fill="true" layer="2" shape="1226.26,2020.32 1222.04,2035.05 1234.32,2038.51 1238.53,2023.78 1226.26,2020.32"/>
    <poly id="building_110" type="building" color="200,200,200" fill="true" layer="2" shape="1087.00,2036.87 1090.69,2049.11 1101.02,2046.04 1097.33,2033.79 1087.00,2036.87"/>
    <poly id="building_111" type="building" color="200,200,200" fill="true" layer="2" shape="1091.20,2051.32 1095.65,2063.41 1106.24,2059.56 1101.79,2047.47 1091.20,2051.32"/>
    <poly id="building_112" type="building" color="200,200,200" fill="true" layer="2" shape="1120.00,2019.91 1124.78,2038.03 1139.38,2034.22 1134.60,2016.11 1120.00,2019.91"/>
    <poly id="building_113" type="building" color="200,200,200" fill="true" layer="2" shape="1140.32,2012.74 1142.48,2021.70 1154.17,2018.92 1152.00,2009.96 1140.32,2012.74"/>
    <poly id="building_114" type="building" color="200,200,200" fill="true" layer="2" shape="1168.67,2047.15 1177.90,2049.21 1180.75,2036.70 1171.51,2034.63 1168.67,2047.15"/>
    <poly id="building_115" type="building" color="200,200,200" fill="true" layer="2" shape="1152.56,2030.80 1158.77,2029.01 1156.86,2022.50 1147.14,2025.32 1149.04,2031.82 1152.56,2030.80"/>
    <poly id="building_116" type="building" color="200,200,200" fill="true" layer="2" shape="1107.13,2047.64 1110.21,2052.79 1123.22,2045.11 1120.13,2039.95 1107.13,2047.64"/>
    <poly id="building_117" type="building" color="200,200,200" fill="true" layer="2" shape="1281.74,2079.22 1286.51,2079.74 1291.04,2079.27 1295.06,2078.79 1295.84,2074.05 1295.87,2069.06 1295.12,2067.06 1291.10,2067.04 1287.59,2067.02 1284.31,2067.75 1282.55,2068.74 1282.28,2072.23 1282.02,2075.48 1281.74,2079.22"/>
    <poly id="building_118" type="building" color="200,200,200" fill="true" layer="2" shape="1283.81,2020.06 1288.32,2020.09 1292.59,2020.11 1295.12,2019.62 1296.14,2016.39 1296.15,2013.63 1296.17,2009.89 1295.68,2007.64 1284.95,2008.21 1283.81,2020.06"/>
    <poly id="building_119" type="building" color="200,200,200" fill="true" layer="2" shape="1128.94,2803.31 1113.79,2808.05 1108.96,2792.83 1124.12,2788.09 1128.94,2803.31"/>
    <poly id="building_120" type="building" color="200,200,200" fill="true" layer="2" shape="1185.23,2989.55 1191.94,2997.41 1197.20,2992.98 1190.51,2985.12 1185.23,2989.55"/>
    <poly id="building_121" type="building" color="200,200,200" fill="true" layer="2" shape="1177.00,2981.16 1174.51,2976.99 1185.17,2970.71 1187.66,2974.88 1177.00,2981.16"/>
    <poly id="building_122" type="building" color="200,200,200" fill="true" layer="2" shape="1165.39,2964.04 1172.94,2973.42 1178.62,2968.91 1171.07,2959.54 1165.39,2964.04"/>
    <poly id="building_123" type="building" color="200,200,200" fill="true" layer="2" shape="1159.15,2942.68 1154.10,2947.04 1146.43,2938.25 1151.49,2933.91 1159.15,2942.68"/>
    <poly id="building_124" type="building" color="200,200,200" fill="true" layer="2" shape="1142.86,2969.51 1146.47,2965.03 1132.96,2954.29 1129.35,2958.77 1142.86,2969.51"/>
    <poly id="building_125" type="building" color="200,200,200" fill="true" layer="2" shape="1108.00,2931.23 1099.17,2942.68 1106.02,2947.88 1114.84,2936.43 1108.00,2931.23"/>
    <poly id="building_126" type="building" color="200,200,200" fill="true" layer="2" shape="1102.72,2907.41 1092.32,2912.27 1096.64,2921.37 1107.04,2916.52 1102.72,2907.41"/>
    <poly id="building_127" type="building" color="200,200,200" fill="true" layer="2" shape="1125.93,2923.60 1118.14,2928.26 1114.12,2921.64 1121.91,2916.97 1125.93,2923.60"/>
    <poly id="building_128" type="building" color="200,200,200" fill="true" layer="2" shape="1057.12,2894.17 1056.50,2903.90 1063.99,2904.22 1064.33,2894.20 1057.12,2894.17"/>
    <poly id="building_129" type="building" color="200,200,200" fill="true" layer="2" shape="1048.37,2859.33 1048.73,2872.65 1057.80,2873.13 1057.73,2859.38 1048.37,2859.33"/>
    <poly id="building_130" type="building" color="200,200,200" fill="true" layer="2" shape="1081.49,2884.43 1083.30,2893.08 1089.82,2891.73 1088.00,2883.08 1081.49,2884.43"/>
    <poly id="building_131" type="building" color="200,200,200" fill="true" layer="2" shape="1088.23,2879.50 1091.39,2887.24 1100.80,2883.45 1097.63,2875.71 1088.23,2879.50"/>
    <poly id="building_132" type="building" color="200,200,200" fill="true" layer="2" shape="1106.97,2891.04 1113.89,2887.26 1106.83,2874.47 1099.91,2878.24 1106.97,2891.04"/>
    <poly id="building_133" type="building" color="200,200,200" fill="true" layer="2" shape="1133.38,2872.54 1145.76,2882.05 1141.32,2887.76 1132.87,2881.27 1128.93,2878.25 1133.38,2872.54"/>
    <poly id="building_134" type="building" color="200,200,200" fill="true" layer="2" shape="1121.46,2864.65 1113.25,2871.85 1120.26,2879.74 1128.47,2872.54 1121.46,2864.65"/>
    <poly id="building_135" type="building" color="200,200,200" fill="true" layer="2" shape="1095.50,2857.14 1085.25,2861.81 1088.95,2869.56 1099.21,2864.60 1095.50,2857.14"/>
    <poly id="building_136" type="building" color="200,200,200" fill="true" layer="2" shape="1129.15,2842.56 1112.69,2847.78 1115.68,2854.95 1131.57,2850.02 1129.15,2842.56"/>
    <poly id="building_137" type="building" color="200,200,200" fill="true" layer="2" shape="1101.17,2830.18 1103.83,2839.43 1089.68,2843.45 1087.02,2834.21 1101.17,2830.18"/>
    <poly id="building_138" type="building" color="200,200,200" fill="true" layer="2" shape="1108.93,2851.06 1097.09,2856.87 1099.80,2862.31 1112.36,2856.80 1108.93,2851.06"/>
    <poly id="building_139" type="building" color="200,200,200" fill="true" layer="2" shape="992.91,2735.93 995.78,2735.75 998.48,2735.76 1002.13,2735.40 1002.88,2738.83 1003.25,2742.28 1003.04,2745.52 999.57,2745.89 996.70,2745.87 993.04,2745.85 993.06,2743.56 992.69,2740.51 993.08,2738.41 992.91,2735.93"/>
    <poly id="building_140" type="building" color="200,200,200" fill="true" layer="2" shape="989.67,2748.39 992.55,2748.22 994.47,2748.23 996.78,2748.24 996.19,2750.91 995.60,2753.76 995.59,2755.87 994.42,2759.49 991.15,2759.47 988.85,2759.46 987.12,2759.45 985.78,2757.34 986.37,2755.06 987.93,2751.44 989.67,2748.39"/>
    <poly id="building_141" type="building" color="200,200,200" fill="true" layer="2" shape="985.38,2760.59 988.84,2761.19 991.52,2761.76 994.59,2761.78 994.39,2765.22 992.84,2767.11 989.38,2767.48 987.26,2767.08 984.77,2766.51 985.38,2760.59"/>