<?xml version="1.0" encoding="UTF-8"?>

<!-- generated on 2026-03-17T22:10:11.982218+05:30 by Eclipse SUMO netconvert 1.25.0
<netconvertConfiguration xmlns:xsi="http://www.w3.org/2001/XMLSchema-instance" xsi:noNamespaceSchemaLocation="http://sumo.dlr.de/xsd/netconvertConfiguration.xsd">

    <input>
        <osm-files value="map.osm"/>
    </input>

    <output>
        <output-file value="area.net.xml"/>
    </output>

    <projection>
        <proj.utm value="true"/>
    </projection>

    <processing>
        <geometry.remove value="true"/>
        <roundabouts.guess value="true"/>
    </processing>

    <ramp_guessing>
        <ramps.guess value="true"/>
    </ramp_guessing>

    <junctions>
        <no-turnarounds value="true"/>
    </junctions>

</netconvertConfiguration>
-->

<net version="1.20" junctionCornerDetail="5" limitTurnSpeed="5.50" xmlns:xsi="http://www.w3.org/2001/XMLSchema-instance" xsi:noNamespaceSchemaLocation="http://sumo.dlr.de/xsd/net_file.xsd">

    <location netOffset="-694693.32,-959719.52" convBoundary="0.00,0.00,8457.15,7063.86" origBoundary="76.769517,8.664279,76.896511,8.741817" projParameter="+proj=utm +zone=43 +ellps=WGS84 +datum=WGS84 +units=m +no_defs"/>

    <type id="highway.living_street" priority="2" numLanes="1" speed="2.78" disallow="tram rail_urban rail rail_electric rail_fast ship container cable_car subway aircraft wheelchair scooter drone" oneway="0"/>
    <type id="highway.primary" priority="12" numLanes="2" speed="27.78" disallow="tram rail_urban rail rail_electric rail_fast ship container cable_car subway aircraft wheelchair scooter drone" oneway="0"/>
    <type id="highway.residential" priority="3" numLanes="1" speed="13.89" disallow="tram rail_urban rail rail_electric rail_fast ship container cable_car subway aircraft wheelchair scooter drone" oneway="0"/>
    <type id="highway.secondary" priority="11" numLanes="1" speed="27.78" disallow="tram rail_urban rail rail_electric rail_fast ship container cable_car subway aircraft wheelchair scooter drone" oneway="0"/>
    <type id="highway.trunk" priority="13" numLanes="2" speed="27.78" disallow="pedestrian bicycle tram rail_urban rail rail_electric rail_fast ship container cable_car subway aircraft wheelchair scooter drone" oneway="0"/>
    <type id="highway.unclassified" priority="4" numLanes="1" speed="13.89" disallow="tram rail_urban rail rail_electric rail_fast ship container cable_car subway aircraft wheelchair scooter drone" oneway="0"/>

    <edge id=":10230137369_0" function="internal">
        <lane id=":10230137369_0_0" index="0" disallow="pedestrian bicycle tram rail_urban rail rail_electric rail_fast ship container cable_car subway aircraft wheelchair scooter drone" speed="27.78" length="62.46" shape="4900.71,3363.39 4908.87,3353.86 4920.93,3339.72 4932.69,3325.37 4939.94,3315.23"/>
        <lane id=":10230137369_0_1" index="1" disallow="pedestrian bicycle tram rail_urban rail rail_electric rail_fast ship container cable_car subway aircraft wheelchair scooter drone" speed="27.78" length="62.46" shape="4903.17,3365.44 4911.38,3355.83 4923.56,3341.52 4935.44,3326.99 4942.75,3316.76"/>
    </edge>
    <edge id=":10230137369_2" function="internal">
        <lane id=":10230137369_2_0" index="0" disallow="pedestrian bicycle tram rail_urban rail rail_electric rail_fast ship container cable_car subway aircraft wheelchair scooter drone" speed="4.78" length="9.43" shape="4903.17,3365.44 4905.38,3364.36 4907.75,3364.97 4909.26,3366.69 4908.90,3368.89"/>
    </edge>
    <edge id=":10230137369_3" function="internal">
        <lane id=":10230137369_3_0" index="0" disallow="pedestrian bicycle tram rail_urban rail rail_electric rail_fast ship container cable_car subway aircraft wheelchair scooter drone" speed="20.84" length="62.54" shape="4906.04,3367.39 4912.34,3359.00 4923.69,3343.85 4935.40,3327.81 4942.75,3316.76"/>
    </edge>
    <edge id=":10536657580_0" function="internal">
        <lane id=":10536657580_0_0" index="0" disallow="tram rail_urban rail rail_electric rail_fast ship container cable_car subway aircraft wheelchair scooter drone" speed="6.73" length="8.99" shape="5688.22,5680.96 5685.89,5680.64 5683.92,5681.16 5682.32,5682.51 5681.09,5684.70"/>
    </edge>
    <edge id=":10536657580_1" function="internal">
        <lane id=":10536657580_1_0" index="0" disallow="tram rail_urban rail rail_electric rail_fast ship container cable_car subway aircraft wheelchair scooter drone" speed="8.01" length="14.19" shape="5688.22,5680.96 5684.68,5679.35 5682.50,5676.99 5681.69,5673.89 5682.23,5670.04"/>
    </edge>
    <edge id=":10536657580_2" function="internal">
        <lane id=":10536657580_2_0" index="0" disallow="tram rail_urban rail rail_electric rail_fast ship container cable_car subway aircraft wheelchair scooter drone" speed="6.51" length="9.04" shape="5685.31,5670.94 5684.96,5673.39 5685.48,5675.36 5686.86,5676.86 5689.12,5677.89"/>
    </edge>
    <edge id=":10536657580_3" function="internal">
        <lane id=":10536657580_3_0" index="0" disallow="tram rail_urban rail rail_electric rail_fast ship container cable_car subway aircraft wheelchair scooter drone" speed="13.89" length="14.40" shape="5685.31,5670.94 5684.32,5674.46 5683.38,5677.88 5682.34,5681.27 5681.09,5684.70"/>
    </edge>
    <edge id=":10536657580_4" function="internal">
        <lane id=":10536657580_4_0" index="0" disallow="tram rail_urban rail rail_electric rail_fast ship container cable_car subway aircraft wheelchair scooter drone" speed="13.89" length="14.39" shape="5678.00,5683.79 5679.26,5680.36 5680.30,5676.98 5681.25,5673.57 5682.23,5670.04"/>
    </edge>
    <edge id=":10536657580_5" function="internal">
        <lane id=":10536657580_5_0" index="0" disallow="tram rail_urban rail rail_electric rail_fast ship container cable_car subway aircraft wheelchair scooter drone" speed="8.26" length="3.95" shape="5678.00,5683.79 5679.94,5680.35"/>
    </edge>
    <edge id=":10536657580_6" function="internal">
        <lane id=":10536657580_6_0" index="0" disallow="tram rail_urban rail rail_electric rail_fast ship container cable_car subway aircraft wheelchair scooter drone" speed="8.26" length="10.11" shape="5679.94,5680.35 5682.43,5678.22 5685.49,5677.40 5689.12,5677.89"/>
    </edge>
    <edge id=":10595698743_0" function="internal">
        <lane id=":10595698743_0_0" index="0" disallow="tram rail_urban rail rail_electric rail_fast ship container cable_car subway aircraft wheelchair scooter drone" speed="6.00" length="9.08" shape="5903.27,5360.41 5902.48,5357.94 5901.13,5356.54 5899.22,5356.21 5896.73,5356.96"/>
    </edge>
    <edge id=":10595698743_1" function="internal">
        <lane id=":10595698743_1_0" index="0" disallow="tram rail_urban rail rail_electric rail_fast ship container cable_car subway aircraft wheelchair scooter drone" speed="13.89" length="14.56" shape="5903.27,5360.41 5900.88,5346.04"/>
    </edge>
    <edge id=":10595698743_2" function="internal">
        <lane id=":10595698743_2_0" index="0" disallow="tram rail_urban rail rail_electric rail_fast ship container cable_car subway aircraft wheelchair scooter drone" speed="13.89" length="14.41" shape="5904.06,5345.67 5906.42,5359.89"/>
    </edge>
    <edge id=":10595698743_3" function="internal">
        <lane id=":10595698743_3_0" index="0" disallow="tram rail_urban rail rail_electric rail_fast ship container cable_car subway aircraft wheelchair scooter drone" speed="9.03" length="3.61" shape="5904.06,5345.67 5904.06,5349.12 5904.00,5349.27"/>
    </edge>
    <edge id=":10595698743_6" function="internal">
        <lane id=":10595698743_6_0" index="0" disallow="tram rail_urban rail rail_electric rail_fast ship container cable_car subway aircraft wheelchair scooter drone" speed="9.03" length="10.96" shape="5904.00,5349.27 5902.84,5352.15 5900.39,5354.77 5896.73,5356.96"/>
    </edge>
    <edge id=":10595698743_4" function="internal">
        <lane id=":10595698743_4_0" index="0" disallow="tram rail_urban rail rail_electric rail_fast ship container cable_car subway aircraft wheelchair scooter drone" speed="7.75" length="10.50" shape="5895.38,5354.06 5898.10,5352.45 5899.93,5350.58 5900.85,5348.45 5900.88,5346.04"/>
    </edge>
    <edge id=":10595698743_5" function="internal">
        <lane id=":10595698743_5_0" index="0" disallow="tram rail_urban rail rail_electric rail_fast ship container cable_car subway aircraft wheelchair scooter drone" speed="7.60" length="15.34" shape="5895.38,5354.06 5899.58,5352.79 5902.82,5353.34 5905.10,5355.71 5906.42,5359.89"/>
    </edge>
    <edge id=":10610490389_0" function="internal">
        <lane id=":10610490389_0_0" index="0" disallow="pedestrian bicycle tram rail_urban rail rail_electric rail_fast ship container cable_car subway aircraft wheelchair scooter drone" speed="12.04" length="71.95" shape="4735.41,4701.33 4729.79,4675.16 4727.15,4666.68 4727.50,4675.88 4730.83,4702.77"/>
        <lane id=":10610490389_0_1" index="1" disallow="pedestrian bicycle tram rail_urban rail rail_electric rail_fast ship container cable_car subway aircraft wheelchair scooter drone" speed="5.11" length="11.11" shape="4738.08,4698.39 4727.44,4701.59"/>
    </edge>
    <edge id=":10610490389_2" function="internal">
        <lane id=":10610490389_2_0" index="0" disallow="pedestrian bicycle tram rail_urban rail rail_electric rail_fast ship container cable_car subway aircraft wheelchair scooter drone" speed="23.61" length="10.72" shape="4738.08,4698.39 4736.45,4696.37 4733.73,4696.24 4730.98,4696.13 4729.25,4694.13"/>
    </edge>
    <edge id=":10610490389_3" function="internal">
        <lane id=":10610490389_3_0" index="0" disallow="pedestrian bicycle tram rail_urban rail rail_electric rail_fast ship container cable_car subway aircraft wheelchair scooter drone" speed="19.44" length="10.23" shape="4732.36,4693.37 4731.98,4695.95 4730.08,4697.44 4728.10,4698.96 4727.44,4701.59"/>
    </edge>
    <edge id=":10610490392_0" function="internal">
        <lane id=":10610490392_0_0" index="0" disallow="tram rail_urban rail rail_electric rail_fast ship container cable_car subway aircraft wheelchair scooter drone" speed="22.22" length="13.77" shape="4754.99,4786.82 4751.80,4785.23 4748.77,4783.85 4745.66,4782.67 4742.25,4781.71"/>
    </edge>
    <edge id=":10610490392_1" function="internal">
        <lane id=":10610490392_1_0" index="0" disallow="pedestrian bicycle tram rail_urban rail rail_electric rail_fast ship container cable_car subway aircraft wheelchair scooter drone" speed="11.15" length="16.09" shape="4754.99,4786.82 4752.58,4784.93 4750.69,4781.95 4749.32,4777.89 4748.47,4772.74"/>
    </edge>
    <edge id=":10610490392_2" function="internal">
        <lane id=":10610490392_2_0" index="0" disallow="pedestrian bicycle tram rail_urban rail rail_electric rail_fast ship container cable_car subway aircraft wheelchair scooter drone" speed="5.28" length="7.02" shape="4742.98,4778.59 4744.23,4778.51 4745.03,4777.56 4745.38,4775.75 4745.29,4773.07"/>
    </edge>
    <edge id=":10610490392_3" function="internal">
        <lane id=":10610490392_3_0" index="0" disallow="tram rail_urban rail rail_electric rail_fast ship container cable_car subway aircraft wheelchair scooter drone" speed="22.22" length="14.52" shape="4742.98,4778.59 4746.51,4779.60 4749.86,4780.86 4753.14,4782.33 4756.44,4783.97"/>
    </edge>
    <edge id=":10610490392_4" function="internal">
        <lane id=":10610490392_4_0" index="0" disallow="pedestrian bicycle tram rail_urban rail rail_electric rail_fast ship container cable_car subway aircraft wheelchair scooter drone" speed="7.26" length="9.90" shape="4745.70,4790.19 4745.63,4786.82 4745.03,4784.28 4743.90,4782.58 4742.25,4781.71"/>
    </edge>
    <edge id=":10610490392_5" function="internal">
        <lane id=":10610490392_5_0" index="0" disallow="pedestrian bicycle tram rail_urban rail rail_electric rail_fast ship container cable_car subway aircraft wheelchair scooter drone" speed="27.78" length="17.40" shape="4745.70,4790.19 4745.94,4785.11 4745.99,4781.62 4745.78,4778.14 4745.29,4773.07"/>
        <lane id=":10610490392_5_1" index="1" disallow="pedestrian bicycle tram rail_urban rail rail_electric rail_fast ship container cable_car subway aircraft wheelchair scooter drone" speed="27.78" length="17.40" shape="4748.90,4790.36 4749.15,4785.12 4749.19,4781.54 4748.98,4777.95 4748.47,4772.74"/>
    </edge>
    <edge id=":10610490392_7" function="internal">
        <lane id=":10610490392_7_0" index="0" disallow="pedestrian bicycle tram rail_urban rail rail_electric rail_fast ship container cable_car subway aircraft wheelchair scooter drone" speed="6.70" length="12.70" shape="4748.90,4790.36 4749.56,4786.22 4751.03,4783.78 4753.33,4783.03 4756.44,4783.97"/>
    </edge>
    <edge id=":10610490394_0" function="internal">
        <lane id=":10610490394_0_0" index="0" disallow="pedestrian bicycle tram rail_urban rail rail_electric rail_fast ship container cable_car subway aircraft wheelchair scooter drone" speed="5.46" length="9.93" shape="4735.02,4847.66 4736.05,4850.70 4737.36,4851.86 4738.95,4851.13 4740.81,4848.50"/>
        <lane id=":10610490394_0_1" index="1" disallow="pedestrian bicycle tram rail_urban rail rail_electric rail_fast ship container cable_car subway aircraft wheelchair scooter drone" speed="7.47" length="20.07" shape="4731.90,4848.36 4733.98,4854.52 4736.63,4856.86 4739.84,4855.37 4743.60,4850.07"/>
    </edge>
    <edge id=":10610490394_2" function="internal">
        <lane id=":10610490394_2_0" index="0" disallow="pedestrian bicycle tram rail_urban rail rail_electric rail_fast ship container cable_car subway aircraft wheelchair scooter drone" speed="19.44" length="17.51" shape="4731.90,4848.36 4733.61,4853.82 4735.50,4857.93 4736.94,4861.39 4737.34,4864.88"/>
    </edge>
    <edge id=":10610490394_3" function="internal">
        <lane id=":10610490394_3_0" index="0" disallow="pedestrian bicycle tram rail_urban rail rail_electric rail_fast ship container cable_car subway aircraft wheelchair scooter drone" speed="23.61" length="17.49" shape="4734.15,4864.59 4735.22,4861.29 4737.45,4858.30 4740.40,4854.83 4743.60,4850.07"/>
    </edge>
    <edge id=":10672274448_0" function="internal">
        <lane id=":10672274448_0_0" index="0" disallow="tram rail_urban rail rail_electric rail_fast ship container cable_car subway aircraft wheelchair scooter drone" speed="13.89" length="14.44" shape="4964.49,3741.39 4950.32,3744.18"/>
    </edge>
    <edge id=":10672274448_1" function="internal">
        <lane id=":10672274448_1_0" index="0" disallow="tram rail_urban rail rail_electric rail_fast ship container cable_car subway aircraft wheelchair scooter drone" speed="8.36" length="3.91" shape="4964.49,3741.39 4960.75,3741.55 4960.59,3741.50"/>
    </edge>
    <edge id=":10672274448_6" function="internal">
        <lane id=":10672274448_6_0" index="0" disallow="tram rail_urban rail rail_electric rail_fast ship container cable_car subway aircraft wheelchair scooter drone" speed="8.36" length="10.45" shape="4960.59,3741.50 4957.70,3740.45 4955.34,3738.06 4953.67,3734.40"/>
    </edge>
    <edge id=":10672274448_2" function="internal">
        <lane id=":10672274448_2_0" index="0" disallow="tram rail_urban rail rail_electric rail_fast ship container cable_car subway aircraft wheelchair scooter drone" speed="6.93" length="9.58" shape="4956.73,3733.46 4957.85,3735.95 4959.41,3737.58 4961.42,3738.34 4963.87,3738.25"/>
    </edge>
    <edge id=":10672274448_3" function="internal">
        <lane id=":10672274448_3_0" index="0" disallow="tram rail_urban rail rail_electric rail_fast ship container cable_car subway aircraft wheelchair scooter drone" speed="7.83" length="14.60" shape="4956.73,3733.46 4957.36,3737.48 4956.50,3740.60 4954.15,3742.83 4950.32,3744.18"/>
    </edge>
    <edge id=":10672274448_4" function="internal">
        <lane id=":10672274448_4_0" index="0" disallow="tram rail_urban rail rail_electric rail_fast ship container cable_car subway aircraft wheelchair scooter drone" speed="6.29" length="9.04" shape="4949.70,3741.04 4952.08,3740.21 4953.53,3738.82 4954.06,3736.89 4953.67,3734.40"/>
    </edge>
    <edge id=":10672274448_5" function="internal">
        <lane id=":10672274448_5_0" index="0" disallow="tram rail_urban rail rail_electric rail_fast ship container cable_car subway aircraft wheelchair scooter drone" speed="13.89" length="14.44" shape="4949.70,3741.04 4963.87,3738.25"/>
    </edge>
    <edge id=":12094489663_0" function="internal">
        <lane id=":12094489663_0_0" index="0" disallow="tram rail_urban rail rail_electric rail_fast ship container cable_car subway aircraft wheelchair scooter drone" speed="8.91" length="9.81" shape="4263.83,4294.78 4261.56,4294.84 4259.39,4295.54 4257.32,4296.87 4255.34,4298.84"/>
    </edge>
    <edge id=":12094489663_1" function="internal">
        <lane id=":12094489663_1_0" index="0" disallow="tram rail_urban rail rail_electric rail_fast ship container cable_car subway aircraft wheelchair scooter drone" speed="13.89" length="13.00" shape="4263.83,4294.78 4260.47,4294.13 4257.64,4293.00 4255.06,4291.33 4252.44,4289.08"/>
    </edge>
    <edge id=":12094489663_2" function="internal">
        <lane id=":12094489663_2_0" index="0" disallow="tram rail_urban rail rail_electric rail_fast ship container cable_car subway aircraft wheelchair scooter drone" speed="12.82" length="11.02" shape="4254.62,4286.74 4256.96,4288.86 4258.91,4290.24 4261.11,4291.09 4264.18,4291.60"/>
    </edge>
    <edge id=":12094489663_3" function="internal">
        <lane id=":12094489663_3_0" index="0" disallow="tram rail_urban rail rail_electric rail_fast ship container cable_car subway aircraft wheelchair scooter drone" speed="8.01" length="3.72" shape="4254.62,4286.74 4256.96,4289.64"/>
    </edge>
    <edge id=":12094489663_6" function="internal">
        <lane id=":12094489663_6_0" index="0" disallow="tram rail_urban rail rail_electric rail_fast ship container cable_car subway aircraft wheelchair scooter drone" speed="8.01" length="9.95" shape="4256.96,4289.64 4257.86,4292.62 4257.32,4295.69 4255.34,4298.84"/>
    </edge>
    <edge id=":12094489663_4" function="internal">
        <lane id=":12094489663_4_0" index="0" disallow="tram rail_urban rail rail_electric rail_fast ship container cable_car subway aircraft wheelchair scooter drone" speed="6.51" length="8.70" shape="4252.89,4296.78 4254.15,4294.77 4254.50,4292.82 4253.92,4290.92 4252.44,4289.08"/>
    </edge>
    <edge id=":12094489663_5" function="internal">
        <lane id=":12094489663_5_0" index="0" disallow="tram rail_urban rail rail_electric rail_fast ship container cable_car subway aircraft wheelchair scooter drone" speed="10.17" length="12.95" shape="4252.89,4296.78 4255.46,4294.25 4258.20,4292.54 4261.11,4291.66 4264.18,4291.60"/>
    </edge>
    <edge id=":12094489665_0" function="internal">
        <lane id=":12094489665_0_0" index="0" disallow="tram rail_urban rail rail_electric rail_fast ship container cable_car subway aircraft wheelchair scooter drone" speed="7.69" length="8.90" shape="4215.13,4263.77 4213.00,4263.33 4210.95,4263.56 4208.98,4264.48 4207.08,4266.08"/>
    </edge>
    <edge id=":12094489665_1" function="internal">
        <lane id=":12094489665_1_0" index="0" disallow="tram rail_urban rail rail_electric rail_fast ship container cable_car subway aircraft wheelchair scooter drone" speed="13.89" length="12.67" shape="4215.13,4263.77 4212.02,4262.45 4209.51,4260.90 4207.29,4258.96 4205.03,4256.42"/>
    </edge>
    <edge id=":12094489665_2" function="internal">
        <lane id=":12094489665_2_0" index="0" disallow="tram rail_urban rail rail_electric rail_fast ship container cable_car subway aircraft wheelchair scooter drone" speed="13.89" length="11.02" shape="4207.49,4254.38 4209.54,4256.76 4211.29,4258.38 4213.32,4259.59 4216.22,4260.77"/>
    </edge>
    <edge id=":12094489665_3" function="internal">
        <lane id=":12094489665_3_0" index="0" disallow="tram rail_urban rail rail_electric rail_fast ship container cable_car subway aircraft wheelchair scooter drone" speed="8.03" length="3.52" shape="4207.49,4254.38 4209.34,4257.37"/>
    </edge>
    <edge id=":12094489665_6" function="internal">
        <lane id=":12094489665_6_0" index="0" disallow="tram rail_urban rail rail_electric rail_fast ship container cable_car subway aircraft wheelchair scooter drone" speed="8.03" length="9.52" shape="4209.34,4257.37 4209.89,4260.32 4209.14,4263.23 4207.08,4266.08"/>
    </edge>
    <edge id=":12094489665_4" function="internal">
        <lane id=":12094489665_4_0" index="0" disallow="tram rail_urban rail rail_electric rail_fast ship container cable_car subway aircraft wheelchair scooter drone" speed="6.53" length="8.30" shape="4204.77,4263.87 4206.08,4262.05 4206.56,4260.21 4206.21,4258.33 4205.03,4256.42"/>
    </edge>
    <edge id=":12094489665_5" function="internal">
        <lane id=":12094489665_5_0" index="0" disallow="tram rail_urban rail rail_electric rail_fast ship container cable_car subway aircraft wheelchair scooter drone" speed="9.05" length="12.61" shape="4204.77,4263.87 4207.42,4261.66 4210.21,4260.40 4213.14,4260.10 4216.22,4260.77"/>
    </edge>
    <edge id=":12094489673_0" function="internal">
        <lane id=":12094489673_0_0" index="0" disallow="tram rail_urban rail rail_electric rail_fast ship container cable_car subway aircraft wheelchair scooter drone" speed="13.89" length="14.44" shape="4213.85,4455.82 4199.56,4453.72"/>
    </edge>
    <edge id=":12094489673_1" function="internal">
        <lane id=":12094489673_1_0" index="0" disallow="tram rail_urban rail rail_electric rail_fast ship container cable_car subway aircraft wheelchair scooter drone" speed="8.37" length="3.91" shape="4213.85,4455.82 4210.27,4454.73 4210.14,4454.63"/>
    </edge>
    <edge id=":12094489673_6" function="internal">
        <lane id=":12094489673_6_0" index="0" disallow="tram rail_urban rail rail_electric rail_fast ship container cable_car subway aircraft wheelchair scooter drone" speed="8.37" length="10.46" shape="4210.14,4454.63 4207.76,4452.67 4206.33,4449.63 4205.98,4445.63"/>
    </edge>
    <edge id=":12094489673_2" function="internal">
        <lane id=":12094489673_2_0" index="0" disallow="tram rail_urban rail rail_electric rail_fast ship container cable_car subway aircraft wheelchair scooter drone" speed="6.94" length="9.59" shape="4209.18,4445.76 4209.41,4448.48 4210.34,4450.54 4211.97,4451.93 4214.31,4452.65"/>
    </edge>
    <edge id=":12094489673_3" function="internal">
        <lane id=":12094489673_3_0" index="0" disallow="tram rail_urban rail rail_electric rail_fast ship container cable_car subway aircraft wheelchair scooter drone" speed="7.82" length="14.61" shape="4209.18,4445.76 4208.43,4449.75 4206.58,4452.41 4203.63,4453.74 4199.56,4453.72"/>
    </edge>
    <edge id=":12094489673_4" function="internal">
        <lane id=":12094489673_4_0" index="0" disallow="tram rail_urban rail rail_electric rail_fast ship container cable_car subway aircraft wheelchair scooter drone" speed="6.29" length="9.04" shape="4200.03,4450.56 4202.54,4450.57 4204.37,4449.75 4205.52,4448.10 4205.98,4445.63"/>
    </edge>
    <edge id=":12094489673_5" function="internal">
        <lane id=":12094489673_5_0" index="0" disallow="tram rail_urban rail rail_electric rail_fast ship container cable_car subway aircraft wheelchair scooter drone" speed="13.89" length="14.44" shape="4200.03,4450.56 4214.31,4452.65"/>
    </edge>
    <edge id=":12094489676_0" function="internal">
        <lane id=":12094489676_0_0" index="0" disallow="tram rail_urban rail rail_electric rail_fast ship container cable_car subway aircraft wheelchair scooter drone" speed="13.89" length="13.83" shape="4244.63,4448.07 4241.14,4448.86 4237.95,4449.89 4234.92,4451.30 4231.92,4453.21"/>
    </edge>
    <edge id=":12094489676_1" function="internal">
        <lane id=":12094489676_1_0" index="0" disallow="tram rail_urban rail rail_electric rail_fast ship container cable_car subway aircraft wheelchair scooter drone" speed="7.61" length="3.85" shape="4244.63,4448.07 4240.78,4448.26"/>
    </edge>
    <edge id=":12094489676_6" function="internal">
        <lane id=":12094489676_6_0" index="0" disallow="tram rail_urban rail rail_electric rail_fast ship container cable_car subway aircraft wheelchair scooter drone" speed="7.61" length="11.44" shape="4240.78,4448.26 4240.27,4448.28 4237.26,4446.97 4235.59,4444.14 4235.28,4439.79"/>
    </edge>
    <edge id=":12094489676_2" function="internal">
        <lane id=":12094489676_2_0" index="0" disallow="tram rail_urban rail rail_electric rail_fast ship container cable_car subway aircraft wheelchair scooter drone" speed="6.01" length="9.08" shape="4238.47,4440.01 4238.66,4442.60 4239.64,4444.28 4241.43,4445.05 4244.02,4444.92"/>
    </edge>
    <edge id=":12094489676_3" function="internal">
        <lane id=":12094489676_3_0" index="0" disallow="tram rail_urban rail rail_electric rail_fast ship container cable_car subway aircraft wheelchair scooter drone" speed="11.91" length="15.22" shape="4238.47,4440.01 4237.83,4444.17 4236.52,4447.76 4234.55,4450.77 4231.92,4453.21"/>
    </edge>
    <edge id=":12094489676_4" function="internal">
        <lane id=":12094489676_4_0" index="0" disallow="tram rail_urban rail rail_electric rail_fast ship container cable_car subway aircraft wheelchair scooter drone" speed="10.80" length="12.43" shape="4230.04,4450.63 4232.14,4448.66 4233.71,4446.20 4234.76,4443.24 4235.28,4439.79"/>
    </edge>
    <edge id=":12094489676_5" function="internal">
        <lane id=":12094489676_5_0" index="0" disallow="tram rail_urban rail rail_electric rail_fast ship container cable_car subway aircraft wheelchair scooter drone" speed="13.89" length="15.21" shape="4230.04,4450.63 4233.24,4448.63 4236.70,4447.03 4240.33,4445.80 4244.02,4444.92"/>
    </edge>
    <edge id=":12094489678_0" function="internal">
        <lane id=":12094489678_0_0" index="0" disallow="tram rail_urban rail rail_electric rail_fast ship container cable_car subway aircraft wheelchair scooter drone" speed="6.11" length="9.06" shape="4216.77,4403.26 4214.23,4403.00 4212.37,4403.67 4211.21,4405.26 4210.74,4407.78"/>
    </edge>
    <edge id=":12094489678_1" function="internal">
        <lane id=":12094489678_1_0" index="0" disallow="tram rail_urban rail rail_electric rail_fast ship container cable_car subway aircraft wheelchair scooter drone" speed="8.25" length="14.96" shape="4216.77,4403.26 4212.37,4401.67 4209.48,4399.45 4208.09,4396.61 4208.21,4393.14"/>
    </edge>
    <edge id=":12094489678_2" function="internal">
        <lane id=":12094489678_2_0" index="0" disallow="tram rail_urban rail rail_electric rail_fast ship container cable_car subway aircraft wheelchair scooter drone" speed="6.96" length="10.34" shape="4211.46,4393.28 4211.40,4395.61 4212.39,4397.53 4214.44,4399.05 4217.54,4400.15"/>
    </edge>
    <edge id=":12094489678_3" function="internal">
        <lane id=":12094489678_3_0" index="0" disallow="tram rail_urban rail rail_electric rail_fast ship container cable_car subway aircraft wheelchair scooter drone" speed="13.89" length="14.55" shape="4211.46,4393.28 4210.90,4396.90 4210.76,4400.48 4210.78,4404.09 4210.74,4407.78"/>
    </edge>
    <edge id=":12094489678_4" function="internal">
        <lane id=":12094489678_4_0" index="0" disallow="tram rail_urban rail rail_electric rail_fast ship container cable_car subway aircraft wheelchair scooter drone" speed="13.89" length="14.55" shape="4207.55,4407.65 4207.58,4403.96 4207.53,4400.35 4207.66,4396.76 4208.21,4393.14"/>
    </edge>
    <edge id=":12094489678_5" function="internal">
        <lane id=":12094489678_5_0" index="0" disallow="tram rail_urban rail rail_electric rail_fast ship container cable_car subway aircraft wheelchair scooter drone" speed="7.69" length="4.06" shape="4207.55,4407.65 4208.29,4403.66"/>
    </edge>
    <edge id=":12094489678_6" function="internal">
        <lane id=":12094489678_6_0" index="0" disallow="tram rail_urban rail rail_electric rail_fast ship container cable_car subway aircraft wheelchair scooter drone" speed="7.69" length="10.96" shape="4208.29,4403.66 4208.32,4403.48 4210.25,4400.84 4213.32,4399.73 4217.54,4400.15"/>
    </edge>
    <edge id=":12094489683_0" function="internal">
        <lane id=":12094489683_0_0" index="0" disallow="tram rail_urban rail rail_electric rail_fast ship container cable_car subway aircraft wheelchair scooter drone" speed="10.47" length="10.38" shape="4133.69,3661.34 4132.06,3659.71 4129.99,3658.45 4127.49,3657.55 4124.54,3657.03"/>
    </edge>
    <edge id=":12094489683_1" function="internal">
        <lane id=":12094489683_1_0" index="0" disallow="tram rail_urban rail rail_electric rail_fast ship container cable_car subway aircraft wheelchair scooter drone" speed="11.83" length="12.95" shape="4133.69,3661.34 4132.16,3658.81 4131.20,3655.91 4130.83,3652.64 4131.03,3649.00"/>
    </edge>
    <edge id=":12094489683_2" function="internal">
        <lane id=":12094489683_2_0" index="0" disallow="tram rail_urban rail rail_electric rail_fast ship container cable_car subway aircraft wheelchair scooter drone" speed="10.66" length="10.43" shape="4134.21,3649.40 4134.03,3652.40 4134.30,3655.06 4135.03,3657.39 4136.22,3659.38"/>
    </edge>
    <edge id=":12094489683_3" function="internal">
        <lane id=":12094489683_3_0" index="0" disallow="tram rail_urban rail rail_electric rail_fast ship container cable_car subway aircraft wheelchair scooter drone" speed="8.01" length="3.36" shape="4134.21,3649.40 4133.31,3652.64"/>
    </edge>
    <edge id=":12094489683_6" function="internal">