<additional>
    <poly id="building_0" type="building" color="200,200,200" fill="true" layer="2" shape="4715.22,3668.54 4726.92,3672.26 4739.65,3640.00 4727.56,3635.68 4715.22,3668.54"/>
    <poly id="building_1" type="building" color="200,200,200" fill="true" layer="2" shape="4733.53,3813.56 4736.28,3798.01 4767.65,3800.05 4780.56,3800.89 4776.90,3818.42 4733.53,3813.56"/>
    <poly id="building_2" type="building" color="200,200,200" fill="true" layer="2" shape="4784.09,3813.80 4787.29,3798.92 4812.08,3799.94 4817.71,3800.18 4815.17,3816.84 4784.09,3813.80"/>
    <poly id="water_3" type="water" color="170,211,223" fill="true" layer="0" shape="5972.22,5359.30 5936.80,5374.54 5926.67,5364.08 5925.88,5343.69 5964.26,5331.19 5972.22,5359.30"/>
    <poly id="building_4" type="building" color="200,200,200" fill="true" layer="2" shape="4713.87,4654.24 4720.93,4654.50 4721.33,4643.35 4714.29,4643.08 4713.87,4654.24"/>
    <poly id="building_5" type="building" color="200,200,200" fill="true" layer="2" shape="4751.00,3457.91 4789.98,3471.22 4791.24,3458.70 4758.27,3444.51 4751.00,3457.91"/>
    <poly id="building_6" type="building" color="200,200,200" fill="true" layer="2" shape="4682.95,5004.00 4703.92,5003.79 4704.57,4995.05 4693.32,4994.38 4682.95,5004.00"/>
    <poly id="water_7" type="water" color="170,211,223" fill="true" layer="0" shape="1182.08,-661.15 1211.53,-693.56 1271.31,-630.65 1323.22,-583.54 1362.80,-553.27 1398.41,-524.50 1480.47,-448.64 1532.35,-393.15 1606.60,-346.44 1670.52,-319.51 1733.95,-293.56 1752.00,-278.68 1825.33,-221.32 1857.49,-189.78 1897.35,-156.11 1936.57,-133.95 1971.65,-130.30 2000.47,-135.05 2048.58,-137.61 2073.51,-140.98 2094.96,-146.47 2122.03,-155.05 2161.74,-161.14 2189.44,-155.78 2209.37,-138.25 2222.65,-124.58 2260.07,-94.07 2275.47,-85.28 2341.09,-79.04 2375.48,-75.38 2406.02,-75.24 2457.69,-87.20 2492.82,-92.61 2524.81,-101.53 2548.66,-97.94 2591.82,-93.20 2620.97,-93.40 2647.62,-88.75 2667.97,-85.86 2693.25,-84.70 2711.18,-92.63 2715.79,-101.33 2726.34,-104.77 2747.73,-98.04 2786.97,-82.17 2823.02,-60.02 2862.29,-48.32 2878.81,-52.77 2885.42,-40.19 2885.71,-27.29 2899.03,-22.34 2928.10,-8.25 2934.39,-0.55 2959.60,10.38 2974.37,6.62 2981.74,8.75 2982.05,17.11 2987.61,28.31 2999.12,36.37 3009.66,43.76 3047.52,53.01 3071.70,63.23 3083.88,85.61 3106.28,99.66 3134.90,136.77 3150.63,150.10 3160.41,159.91 3160.36,171.42 3167.33,181.91 3171.89,182.63 3186.58,193.17 3177.08,198.35 3179.85,206.04 3192.83,209.94 3197.35,217.64 3210.22,243.51 3223.82,262.41 3234.94,287.21 3239.05,309.55 3240.72,325.96 3240.13,376.88 3242.16,394.33 3240.94,427.11 3243.65,449.09 3249.91,462.03 3247.72,480.15 3240.61,498.61 3240.50,520.23 3247.09,538.05 3247.27,573.62 3251.41,590.38 3268.16,610.69 3277.21,627.82 3288.02,642.17 3305.81,668.06 3320.45,688.71 3324.96,700.94 3344.45,734.51 3366.44,762.86 3388.72,799.83 3413.92,825.10 3432.70,842.95 3503.40,906.41 3527.59,936.13 3552.82,953.01 3593.45,969.98 3627.08,999.24 3623.87,1046.08 3618.83,1062.34 3600.36,1084.93 3598.80,1099.23 3573.86,1123.78 3568.35,1134.60 3553.40,1145.38 3540.94,1154.69 3524.50,1166.94 3492.17,1179.11 3437.95,1201.55 3351.95,1225.80 3324.06,1241.45 3275.84,1257.01 3261.89,1266.31 3208.67,1286.77 3155.42,1313.16 3120.07,1334.69 3096.14,1354.31 3071.15,1391.68 3050.07,1438.43 3050.47,1459.64 3034.56,1464.01 3026.51,1485.17 3030.30,1524.65 3036.00,1577.94 3034.93,1595.69 3038.22,1635.17 3045.58,1654.44 3053.36,1686.05 3059.76,1699.88 3066.72,1695.48 3078.54,1716.74 3074.01,1729.55 3085.84,1749.33 3080.80,1762.13 3082.71,1779.40 3081.59,1807.01 3079.50,1828.22 3071.03,1835.08 3078.37,1858.30 3076.81,1873.09 3073.69,1901.18 3078.05,1924.88 3074.43,1955.44 3074.24,1994.89 3067.71,2011.64 3064.13,2032.83 3056.58,2053.51 3050.04,2073.70 3037.53,2093.37 2991.54,2159.73 2977.09,2171.01 2949.53,2225.62 2945.97,2242.87 2923.94,2282.72 2902.95,2312.70 2899.83,2340.81 2901.22,2362.51 2931.35,2393.23 2982.33,2428.99 3018.41,2459.73 3045.09,2488.96 3064.85,2509.77 3079.63,2533.51 3120.01,2603.25 3140.88,2634.60 3173.13,2666.18 3182.74,2671.61 3207.93,2697.37 3241.64,2707.40 3271.89,2715.44 3287.77,2715.52 3304.19,2710.16 3317.06,2716.64 3314.05,2723.53 3336.87,2728.07 3356.73,2726.69 3429.66,2735.91 3465.36,2745.45 3515.98,2749.15 3542.78,2752.73 3572.07,2753.36 3612.25,2758.98 3643.48,2767.51 3664.32,2771.06 3749.67,2779.85 3770.96,2790.31 3785.32,2800.24 3806.55,2823.53 3821.84,2846.79 3831.64,2873.46 3842.00,2886.34 3856.35,2896.76 3873.59,2923.97 3874.98,2944.20 3888.70,2983.22 3903.84,3035.58 3917.61,3063.75 3922.93,3092.88 3942.69,3112.21 3960.96,3134.98 3974.23,3162.18 3987.54,3181.48 4024.65,3210.26 4065.24,3234.12 4109.82,3252.59 4143.51,3270.01 4156.33,3288.31 4176.61,3302.72 4213.83,3304.87 4272.28,3333.75 4300.57,3333.89 4328.82,3344.88 4360.11,3343.54 4382.92,3348.59 4408.16,3364.49 4473.14,3375.15 4528.72,3380.85 4569.39,3389.43 4589.20,3399.88 4611.05,3397.52 4642.82,3398.65 4693.40,3410.74 4720.10,3432.57 4735.89,3452.37 4783.72,3497.40 4755.86,3533.36 4722.33,3485.36 4698.08,3469.45 4666.41,3448.59 4616.35,3431.58 4595.99,3434.43 4581.11,3428.44 4560.29,3423.42 4520.58,3421.75 4493.30,3415.70 4469.02,3408.67 4448.18,3405.12 4412.45,3402.00 4366.82,3391.91 4320.17,3388.73 4296.87,3382.70 4221.47,3369.02 4180.78,3364.39 4135.23,3339.02 4077.35,3296.32 4040.68,3282.34 3978.91,3222.37 3943.78,3198.04 3915.58,3177.19 3896.38,3142.07 3884.10,3116.38 3870.35,3085.73 3844.80,3027.90 3834.79,2995.77 3818.75,2972.04 3807.98,2936.09 3790.94,2898.18 3781.43,2888.52 3768.18,2855.40 3748.87,2843.97 3684.89,2828.87 3652.68,2816.88 3633.32,2816.79 3600.62,2803.31 3560.96,2790.79 3537.15,2787.72 3449.77,2788.78 3344.53,2788.28 3298.85,2788.06 3269.57,2780.36 3257.17,2782.44 3184.95,2726.36 3142.90,2697.06 3114.19,2678.69 3067.18,2644.43 3044.06,2600.42 3022.39,2563.82 2982.01,2497.05 2969.68,2478.74 2953.82,2470.77 2944.93,2462.35 2912.27,2440.49 2903.37,2432.55 2885.05,2421.61 2877.18,2404.81 2850.35,2369.65 2850.56,2327.12 2860.95,2314.27 2869.85,2304.64 2877.86,2295.87 2884.43,2280.36 2882.71,2270.97 2883.35,2257.18 2887.24,2247.24 2889.35,2238.45 2895.30,2228.22 2899.17,2222.95 2903.97,2205.37 2911.42,2188.99 2922.14,2171.73 2928.41,2154.76 2943.27,2134.30 2951.91,2117.33 2963.51,2099.79 2967.71,2086.90 2993.22,2061.22 3003.89,2050.13 3020.84,2025.28 3027.37,2016.22 3038.80,1971.11 3040.07,1953.11 3046.10,1936.87 3044.91,1927.73 3046.71,1911.47 3047.99,1904.08 3048.76,1899.15 3049.83,1883.13 3045.19,1868.79 3043.03,1853.74 3049.39,1818.02 3048.80,1787.93 3048.11,1774.36 3042.26,1753.61 3042.82,1739.12 3031.69,1715.71 3024.43,1693.35 3018.20,1674.13 3011.64,1652.14 3007.59,1625.05 3004.83,1591.85 2997.62,1528.77 3000.68,1500.17 2985.03,1453.23 2981.09,1425.33 2980.59,1404.80 3010.26,1374.44 3023.38,1346.34 3040.02,1321.79 3065.51,1300.79 3100.44,1280.43 3157.24,1256.65 3177.37,1243.84 3219.96,1226.45 3263.10,1217.86 3292.61,1220.93 3312.18,1203.42 3343.57,1183.63 3375.51,1171.47 3402.10,1166.89 3422.82,1153.51 3500.29,1126.90 3525.17,1111.18 3551.89,1079.04 3579.82,1040.46 3571.87,1005.24 3534.61,986.29 3505.20,964.45 3479.36,934.99 3456.45,910.83 3406.45,872.47 3380.02,843.02 3357.79,813.29 3324.16,793.48 3284.93,722.33 3257.46,665.88 3227.62,607.09 3215.35,581.81 3214.23,566.55 3212.06,527.83 3205.08,504.33 3201.63,484.37 3197.11,443.29 3189.59,410.41 3190.34,374.63 3182.88,331.19 3164.85,273.03 3143.17,238.32 3105.80,151.34 3091.13,131.90 3042.39,95.78 3026.96,89.90 3007.73,80.98 2971.31,64.53 2936.64,48.59 2921.28,40.12 2856.51,9.73 2816.52,-8.30 2744.90,-33.60 2709.87,-27.84 2675.37,-28.01 2588.19,-36.84 2397.49,-27.87 2316.01,-14.45 2193.16,-74.22 2133.73,-106.07 2101.91,-96.35 2077.86,-49.11 2024.13,-27.66 1942.87,-61.58 1852.64,-126.07 1809.64,-158.84 1799.13,-174.82 1675.65,-250.27 1598.41,-296.01 1536.82,-288.41 1477.44,-330.12 1431.90,-359.93 1434.08,-401.35 1378.75,-460.80 1312.53,-528.19 1243.34,-594.61 1213.67,-621.38 1207.79,-636.21 1196.91,-645.14 1190.98,-653.06 1182.08,-661.15"/>
    <poly id="water_8" type="water" color="170,211,223" fill="true" layer="0" shape="4864.20,3722.06 4863.17,3727.23 4871.71,3681.34 4864.20,3722.06"/>
    <poly id="building_9" type="building" color="200,200,200" fill="true" layer="2" shape="4714.45,4053.65 4720.13,4063.62 4744.06,4062.31 4744.85,4046.00 4740.60,4039.58 4714.45,4053.65"/>
    <poly id="water_10" type="water" color="170,211,223" fill="true" layer="0" shape="4536.98,5162.02 4554.43,5173.80 4577.04,5150.14 4558.88,5139.41 4536.98,5162.02"/>
    <poly id="building_11" type="building" color="200,200,200" fill="true" layer="2" shape="3911.68,5547.80 3916.53,5561.59 3928.17,5558.98 3930.49,5542.55 3911.68,5547.80"/>
    <poly id="building_12" type="building" color="200,200,200" fill="true" layer="2" shape="4281.96,5208.20 4291.34,5211.37 4287.72,5222.01 4277.43,5220.63 4281.96,5208.20"/>
    <poly id="building_13" type="building" color="200,200,200" fill="true" layer="2" shape="4403.91,5249.68 4403.41,5259.01 4410.57,5259.49 4412.86,5248.84 4403.91,5249.68"/>
    <poly id="building_14" type="building" color="200,200,200" fill="true" layer="2" shape="4424.86,5266.23 4427.06,5273.79 4434.66,5274.27 4436.95,5264.06 4424.86,5266.23"/>
    <poly id="building_15" type="building" color="200,200,200" fill="true" layer="2" shape="4660.91,5303.81 4661.74,5318.04 4692.62,5315.52 4691.77,5305.29 4680.16,5301.23 4660.91,5303.81"/>
    <poly id="building_16" type="building" color="200,200,200" fill="true" layer="2" shape="4288.23,5299.80 4291.33,5308.26 4300.72,5307.41 4301.22,5297.64 4288.23,5299.80"/>
    <poly id="building_17" type="building" color="200,200,200" fill="true" layer="2" shape="4947.24,5398.53 4945.40,5410.08 4959.71,5409.69 4961.12,5395.93 4947.24,5398.53"/>
    <poly id="building_18" type="building" color="200,200,200" fill="true" layer="2" shape="4982.64,5388.48 4982.58,5399.14 4996.02,5397.42 4996.51,5386.76 4982.64,5388.48"/>
    <poly id="building_19" type="building" color="200,200,200" fill="true" layer="2" shape="4908.79,5299.67 4924.45,5300.63 4922.17,5309.95 4908.30,5310.78 4908.79,5299.67"/>
    <poly id="building_20" type="building" color="200,200,200" fill="true" layer="2" shape="5201.57,5263.73 5201.06,5276.63 5213.13,5277.13 5214.11,5262.91 5201.57,5263.73"/>
    <poly id="building_21" type="building" color="200,200,200" fill="true" layer="2" shape="5267.75,5364.51 5268.15,5376.07 5280.68,5373.46 5279.39,5362.34 5267.75,5364.51"/>
    <poly id="building_22" type="building" color="200,200,200" fill="true" layer="2" shape="5307.69,5338.03 5310.33,5349.16 5327.79,5346.13 5327.84,5336.79 5307.69,5338.03"/>
    <poly id="building_23" type="building" color="200,200,200" fill="true" layer="2" shape="5361.44,5233.40 5356.03,5242.25 5359.58,5246.72 5363.63,5242.73 5367.67,5240.98 5368.15,5234.32 5361.44,5233.40"/>
    <poly id="building_24" type="building" color="200,200,200" fill="true" layer="2" shape="5130.48,5161.61 5136.30,5159.86 5144.71,5179.46 5132.15,5185.17 5130.48,5161.61"/>
    <poly id="building_25" type="building" color="200,200,200" fill="true" layer="2" shape="5198.16,5228.17 5197.65,5240.16 5183.80,5237.43 5183.84,5228.54 5198.16,5228.17"/>
    <poly id="building_26" type="building" color="200,200,200" fill="true" layer="2" shape="5520.50,5094.59 5519.58,5099.04 5532.08,5103.99 5533.48,5091.99 5520.50,5094.59"/>
    <poly id="building_27" type="building" color="200,200,200" fill="true" layer="2" shape="5599.18,5105.64 5600.47,5117.20 5588.37,5120.69 5588.44,5106.92 5599.18,5105.64"/>
    <poly id="building_28" type="building" color="200,200,200" fill="true" layer="2" shape="5619.93,5165.74 5621.25,5170.20 5636.02,5168.04 5633.83,5158.26 5619.93,5165.74"/>
    <poly id="building_29" type="building" color="200,200,200" fill="true" layer="2" shape="5973.00,4863.07 5972.95,4866.36 5975.08,4866.39 5975.03,4869.25 5972.27,4869.21 5972.22,4873.19 5960.53,4873.03 5960.69,4862.88 5973.00,4863.07"/>
    <poly id="building_30" type="building" color="200,200,200" fill="true" layer="2" shape="4711.85,4231.27 4710.14,4218.64 4724.03,4215.77 4725.19,4219.60 4728.15,4217.85 4730.79,4222.55 4726.64,4224.29 4726.62,4229.57 4711.85,4231.27"/>
    <poly id="building_31" type="building" color="200,200,200" fill="true" layer="2" shape="3920.65,4562.08 3920.59,4573.80 3933.28,4574.75 3932.76,4560.96 3920.65,4562.08"/>
    <poly id="building_32" type="building" color="200,200,200" fill="true" layer="2" shape="4104.56,4437.73 4102.54,4426.87 4116.43,4423.42 4117.56,4434.87 4104.56,4437.73"/>
    <poly id="building_33" type="building" color="200,200,200" fill="true" layer="2" shape="4279.44,4408.08 4280.39,4396.06 4290.71,4398.45 4288.88,4410.18 4279.44,4408.08"/>
    <poly id="building_34" type="building" color="200,200,200" fill="true" layer="2" shape="4280.91,4472.02 4283.64,4457.07 4295.46,4455.95 4294.48,4473.25 4280.91,4472.02"/>
    <poly id="building_35" type="building" color="200,200,200" fill="true" layer="2" shape="4304.84,4467.43 4305.22,4451.02 4317.62,4449.61 4318.14,4465.45 4304.84,4467.43"/>
    <poly id="building_36" type="building" color="200,200,200" fill="true" layer="2" shape="4337.38,4452.93 4337.01,4468.17 4350.00,4469.42 4351.85,4453.29 4337.38,4452.93"/>
    <poly id="building_37" type="building" color="200,200,200" fill="true" layer="2" shape="4351.76,4471.18 4354.52,4449.20 4369.87,4449.86 4369.17,4470.97 4351.76,4471.18"/>
    <poly id="building_38" type="building" color="200,200,200" fill="true" layer="2" shape="4170.13,4673.53 4169.61,4660.92 4182.59,4661.28 4183.13,4672.42 4170.13,4673.53"/>
    <poly id="building_39" type="building" color="200,200,200" fill="true" layer="2" shape="4134.92,4630.84 4134.12,4611.19 4145.06,4609.77 4146.43,4630.90 4134.92,4630.84"/>
    <poly id="building_40" type="building" color="200,200,200" fill="true" layer="2" shape="3928.47,4655.07 3925.28,4643.33 3945.35,4644.60 3946.78,4653.70 3928.47,4655.07"/>
    <poly id="building_41" type="building" color="200,200,200" fill="true" layer="2" shape="3928.38,4674.14 3929.33,4660.65 3944.97,4661.61 3945.20,4675.98 3928.38,4674.14"/>
    <poly id="building_42" type="building" color="200,200,200" fill="true" layer="2" shape="4015.95,4880.71 4016.89,4867.23 4029.59,4868.46 4028.93,4881.65 4015.95,4880.71"/>
    <poly id="building_43" type="building" color="200,200,200" fill="true" layer="2" shape="4042.86,4870.87 4039.95,4859.13 4053.26,4855.08 4054.97,4867.41 4042.86,4870.87"/>
    <poly id="building_44" type="building" color="200,200,200" fill="true" layer="2" shape="4239.41,4877.97 4238.28,4867.40 4250.98,4866.29 4251.23,4875.38 4239.41,4877.97"/>
    <poly id="building_45" type="building" color="200,200,200" fill="true" layer="2" shape="4174.84,4862.12 4176.67,4850.98 4191.73,4850.18 4190.50,4861.31 4174.84,4862.12"/>
    <poly id="building_46" type="building" color="200,200,200" fill="true" layer="2" shape="4200.33,4842.30 4200.97,4830.57 4215.44,4830.93 4214.19,4842.07 4200.33,4842.30"/>
    <poly id="building_47" type="building" color="200,200,200" fill="true" layer="2" shape="4223.97,4837.42 4219.60,4822.16 4229.65,4819.56 4232.54,4832.19 4223.97,4837.42"/>
    <poly id="building_48" type="building" color="200,200,200" fill="true" layer="2" shape="3802.00,4496.70 3798.23,4482.02 3812.42,4480.33 3813.24,4492.07 3802.00,4496.70"/>
    <poly id="building_49" type="building" color="200,200,200" fill="true" layer="2" shape="3867.01,4545.98 3866.47,4533.67 3880.35,4531.98 3880.57,4546.93 3867.01,4545.98"/>
    <poly id="building_50" type="building" color="200,200,200" fill="true" layer="2" shape="3923.38,4548.60 3923.42,4538.92 3935.81,4540.16 3934.28,4551.88 3928.36,4553.02 3927.79,4550.09 3923.38,4548.60"/>
    <poly id="building_51" type="building" color="200,200,200" fill="true" layer="2" shape="4487.55,4592.36 4488.50,4579.16 4501.19,4580.11 4499.65,4593.00 4487.55,4592.36"/>
    <poly id="building_52" type="building" color="200,200,200" fill="true" layer="2" shape="4483.75,4646.59 4485.31,4629.59 4496.21,4632.87 4494.66,4648.40 4483.75,4646.59"/>
    <poly id="building_53" type="building" color="200,200,200" fill="true" layer="2" shape="4500.00,4644.03 4502.72,4630.56 4510.97,4632.64 4510.32,4645.55 4500.00,4644.03"/>
    <poly id="building_54" type="building" color="200,200,200" fill="true" layer="2" shape="5306.68,5696.28 5306.45,5686.01 5320.90,5686.95 5321.15,5696.63 5306.68,5696.28"/>
    <poly id="building_55" type="building" color="200,200,200" fill="true" layer="2" shape="5362.31,5670.44 5363.25,5657.84 5374.47,5659.36 5373.22,5670.49 5362.31,5670.44"/>
    <poly id="building_56" type="building" color="200,200,200" fill="true" layer="2" shape="5357.68,5712.65 5357.72,5704.14 5369.53,5704.20 5370.06,5714.17 5357.68,5712.65"/>
    <poly id="building_57" type="building" color="200,200,200" fill="true" layer="2" shape="4361.11,4718.26 4370.88,4720.08 4374.36,4707.79 4365.26,4702.89 4361.11,4718.26"/>
    <poly id="water_58" type="water" color="170,211,223" fill="true" layer="0" shape="4258.70,3963.02 4255.20,3965.94 4255.43,3972.08 4258.91,3975.83 4265.10,3973.99 4268.89,3968.67 4267.04,3961.19 4258.70,3963.02"/>
    <poly id="water_59" type="water" color="170,211,223" fill="true" layer="0" shape="3854.97,4317.71 3865.22,4324.45 3872.91,4309.35 3861.60,4302.78 3854.97,4317.71"/>
    <poly id="water_60" type="water" color="170,211,223" fill="true" layer="0" shape="5259.83,4948.45 5264.60,4931.48 5249.33,4930.19 5246.64,4940.09 5259.83,4948.45"/>
    <poly id="water_61" type="water" color="170,211,223" fill="true" layer="0" shape="4479.06,4817.85 4483.07,4822.40 4483.84,4828.55 4478.17,4835.19 4481.91,4838.68 4489.72,4835.25 4492.17,4829.66 4500.51,4827.29 4502.16,4818.76 4500.60,4809.15 4479.06,4817.85"/>
    <poly id="water_62" type="water" color="170,211,223" fill="true" layer="0" shape="4510.97,5613.50 4492.61,5621.90 4497.85,5632.45 4516.12,5643.46 4510.97,5613.50"/>
    <poly id="water_63" type="water" color="170,211,223" fill="true" layer="0" shape="5610.66,5646.99 5612.46,5620.03 5634.50,5627.74 5635.53,5636.89 5624.82,5651.64 5610.66,5646.99"/>
    <poly id="building_64" type="building" color="200,200,200" fill="true" layer="2" shape="4727.84,5117.90 4738.58,5118.65 4739.69,5102.97 4728.95,5102.22 4727.84,5117.90"/>
    <poly id="building_65" type="building" color="200,200,200" fill="true" layer="2" shape="5347.35,5173.00 5341.64,5179.56 5373.38,5204.77 5379.10,5195.09 5347.35,5173.00"/>
    <poly id="building_66" type="building" color="200,200,200" fill="true" layer="2" shape="5347.76,5154.51 5341.09,5162.94 5381.63,5193.84 5387.34,5187.30 5347.76,5154.51"/>
    <poly id="building_67" type="building" color="200,200,200" fill="true" layer="2" shape="5364.21,5142.69 5357.55,5151.11 5391.48,5180.11 5399.08,5172.93 5364.21,5142.69"/>
    <poly id="building_68" type="building" color="200,200,200" fill="true" layer="2" shape="5384.44,5134.63 5376.52,5140.55 5397.61,5152.24 5404.25,5146.95 5384.44,5134.63"/>
    <poly id="building_69" type="building" color="200,200,200" fill="true" layer="2" shape="5388.25,5129.64 5401.56,5118.42 5405.63,5121.30 5394.54,5134.37 5388.25,5129.64"/>
    <poly id="building_70" type="building" color="200,200,200" fill="true" layer="2" shape="5442.68,5094.18 5459.22,5064.49 5468.34,5069.22 5452.43,5098.92 5442.68,5094.18"/>
    <poly id="building_71" type="building" color="200,200,200" fill="true" layer="2" shape="4697.83,4917.27 4718.80,4917.06 4719.44,4908.31 4698.46,4907.90 4697.83,4917.27"/>
    <poly id="water_72" type="water" color="170,211,223" fill="true" layer="0" shape="4905.18,5049.57 4896.50,5047.87 4899.86,5044.23 4896.85,5042.23 4893.82,5048.52 4895.80,5053.18 4895.77,5060.15 4900.77,5062.50 4908.14,5059.55 4905.18,5049.57"/>
    <poly id="water_73" type="water" color="170,211,223" fill="true" layer="0" shape="4958.46,5021.61 4953.78,5018.93 4949.78,5018.58 4949.76,5022.56 4951.75,5025.56 4957.75,5030.56 4961.09,5029.58 4958.46,5021.61"/>
    <poly id="water_74" type="water" color="170,211,223" fill="true" layer="0" shape="3933.94,5176.41 3936.70,5160.15 3929.24,5147.84 3911.05,5139.77 3906.63,5154.70 3907.90,5170.31 3917.91,5173.01 3933.94,5176.41"/>
    <poly id="water_75" type="water" color="170,211,223" fill="true" layer="0" shape="4759.39,5340.09 4753.37,5342.71 4753.33,5349.35 4760.02,5348.05 4759.39,5340.09"/>
    <poly id="water_76" type="water" color="170,211,223" fill="true" layer="0" shape="4107.65,3794.60 4107.88,3799.12 4107.87,3802.87 4102.82,3802.34 4100.55,3801.84 4102.08,3799.59 4102.35,3793.83 4105.89,3792.84 4107.65,3794.60"/>
    <poly id="water_77" type="water" color="170,211,223" fill="true" layer="0" shape="4276.24,4007.64 4283.56,4009.13 4283.50,4021.86 4280.90,4030.21 4273.92,4034.18 4262.60,4026.49 4247.64,4015.50 4250.25,4006.05 4255.06,3996.62 4259.46,3995.92 4276.24,4007.64"/>
    <poly id="water_78" type="water" color="170,211,223" fill="true" layer="0" shape="3986.51,3395.89 3972.51,3394.12 3967.64,3398.64 3966.46,3406.86 3961.03,3406.83 3963.59,3410.54 3972.16,3409.44 3977.61,3402.94 3981.62,3402.39 3985.91,3400.42 3986.51,3395.89"/>
    <poly id="water_79" type="water" color="170,211,223" fill="true" layer="0" shape="5906.91,5349.62 5907.69,5353.81 5902.66,5356.19 5901.28,5351.99 5906.91,5349.62"/>
    <poly id="building_80" type="building" color="200,200,200" fill="true" layer="2" shape="4733.31,5022.35 4735.42,5008.91 4740.02,5009.44 4738.42,5022.88 4733.31,5022.35"/>
    <poly id="building_81" type="building" color="200,200,200" fill="true" layer="2" shape="5702.83,5620.76 5710.56,5570.49 5775.99,5572.04 5764.05,5624.31 5702.83,5620.76"/>
    <poly id="building_82" type="building" color="200,200,200" fill="true" layer="2" shape="4632.00,4674.92 4683.10,4681.91 4688.09,4645.85 4637.00,4638.85 4632.00,4674.92"/>
    <poly id="building_83" type="building" color="200,200,200" fill="true" layer="2" shape="4840.71,4855.27 4842.99,4857.04 4844.80,4856.06 4842.27,4854.14 4840.71,4855.27"/>
    <poly id="building_84" type="building" color="200,200,200" fill="true" layer="2" shape="4710.80,4702.03 4710.56,4712.90 4715.88,4712.31 4715.76,4702.14 4710.80,4702.03"/>
    <poly id="building_85" type="building" color="200,200,200" fill="true" layer="2" shape="4760.45,4763.95 4780.30,4764.63 4779.75,4755.47 4760.20,4754.49 4760.45,4763.95"/>
    <poly id="building_86" type="building" color="200,200,200" fill="true" layer="2" shape="4779.54,4225.48 4791.87,4222.70 4782.33,4187.87 4781.76,4185.77 4771.66,4190.83 4777.42,4216.16 4779.54,4225.48"/>
    <poly id="building_87" type="building" color="200,200,200" fill="true" layer="2" shape="4199.87,4597.25 4192.25,4590.52 4197.03,4585.19 4204.65,4591.92 4199.87,4597.25"/>
    <poly id="building_88" type="building" color="200,200,200" fill="true" layer="2" shape="4754.93,4168.47 4761.85,4167.49 4758.98,4163.35 4754.03,4164.30 4754.93,4168.47"/>
    <poly id="building_89" type="building" color="200,200,200" fill="true" layer="2" shape="4642.69,3823.75 4645.19,3813.41 4659.00,3816.93 4658.78,3826.02 4642.69,3823.75"/>
    <poly id="building_90" type="building" color="200,200,200" fill="true" layer="2" shape="4837.36,4543.12 4846.47,4544.80 4848.28,4535.13 4839.16,4533.45 4837.36,4543.12"/>
    <poly id="building_91" type="building" color="200,200,200" fill="true" layer="2" shape="4435.38,5609.32 4440.29,5600.05 4449.79,5610.16 4444.50,5615.94 4435.38,5609.32"/>
    <poly id="building_92" type="building" color="200,200,200" fill="true" layer="2" shape="4393.02,5579.36 4395.54,5583.59 4400.63,5581.42 4399.12,5577.87 4393.02,5579.36"/>
    <poly id="building_93" type="building" color="200,200,200" fill="true" layer="2" shape="4764.19,4568.40 4763.32,4553.61 4766.93,4540.03 4794.31,4541.10 4791.04,4584.01 4777.07,4591.69 4769.04,4589.77 4764.19,4568.40"/>
    <poly id="building_94" type="building" color="200,200,200" fill="true" layer="2" shape="4129.78,5127.09 4130.88,5114.37 4144.50,5115.52 4143.40,5128.25 4129.78,5127.09"/>
    <poly id="building_95" type="building" color="200,200,200" fill="true" layer="2" shape="4259.73,5098.01 4271.39,5099.62 4272.57,5091.17 4260.91,5089.55 4259.73,5098.01"/>
    <poly id="building_96" type="building" color="200,200,200" fill="true" layer="2" shape="4330.03,5060.50 4334.35,5060.06 4333.36,5050.48 4328.18,5046.93 4323.93,5048.78 4324.40,5053.40 4329.26,5052.90 4330.03,5060.50"/>
    <poly id="building_97" type="building" color="200,200,200" fill="true" layer="2" shape="4293.16,5027.20 4292.14,5019.05 4304.26,5017.56 4305.27,5025.72 4293.16,5027.20"/>
    <poly id="building_98" type="building" color="200,200,200" fill="true" layer="2" shape="4235.86,4830.78 4242.48,4828.41 4237.87,4815.71 4231.26,4818.07 4235.86,4830.78"/>
    <poly id="building_99" type="building" color="200,200,200" fill="true" layer="2" shape="4360.16,4880.98 4357.15,4869.35 4363.06,4867.84 4366.06,4879.47 4360.16,4880.98"/>
    <poly id="building_100" type="building" color="200,200,200" fill="true" layer="2" shape="4370.60,4916.85 4382.47,4913.91 4380.48,4906.00 4368.62,4908.94 4370.60,4916.85"/>
    <poly id="building_101" type="building" color="200,200,200" fill="true" layer="2" shape="4284.53,4928.48 4283.25,4919.12 4295.56,4917.45 4296.84,4926.81 4284.53,4928.48"/>
    <poly id="building_102" type="building" color="200,200,200" fill="true" layer="2" shape="4219.62,4962.82 4228.16,4961.75 4229.70,4973.77 4221.15,4974.84 4219.62,4962.82"/>
    <poly id="building_103" type="building" color="200,200,200" fill="true" layer="2" shape="4869.15,3448.77 4877.24,3429.70 4888.64,3435.81 4881.12,3454.32 4869.15,3448.77"/>
    <poly id="building_104" type="building" color="200,200,200" fill="true" layer="2" shape="4691.11,4683.42 4719.06,4687.37 4722.18,4667.55 4693.76,4663.27 4691.11,4683.42"/>
</additional>
