<additional>
    <poly id="water_0" type="water" color="170,211,223" fill="true" layer="0" shape="6401.35,3620.19 6434.18,3634.80 6468.80,3647.06 6478.80,3649.92 6488.30,3651.76 6495.51,3649.24 6505.32,3637.79 6506.11,3634.73 6503.03,3633.19 6497.90,3632.15 6496.88,3630.09 6488.92,3629.55 6464.76,3629.94 6458.09,3628.37 6446.56,3621.17 6429.15,3609.10 6422.22,3606.51 6419.39,3608.28 6414.76,3609.03 6409.89,3606.20 6398.28,3600.10 6389.13,3613.42 6401.35,3620.19"/>
    <poly id="building_1" type="building" color="200,200,200" fill="true" layer="2" shape="6204.23,3614.85 6199.15,3629.55 6213.10,3635.62 6211.80,3648.06 6230.55,3653.75 6230.40,3641.31 6243.13,3641.78 6245.16,3629.89 6204.23,3614.85"/>
    <poly id="building_2" type="building" color="200,200,200" fill="true" layer="2" shape="6224.86,3872.62 6221.43,3882.29 6215.70,3881.24 6203.62,3879.04 6207.43,3867.69 6224.86,3872.62"/>
    <poly id="building_3" type="building" color="200,200,200" fill="true" layer="2" shape="6197.56,3892.06 6202.12,3878.85 6215.70,3881.24 6211.63,3893.99 6197.56,3892.06"/>
    <poly id="building_4" type="building" color="200,200,200" fill="true" layer="2" shape="6132.32,3972.03 6090.59,3957.39 6092.46,3946.38 6136.56,3959.95 6132.32,3972.03"/>
    <poly id="building_5" type="building" color="200,200,200" fill="true" layer="2" shape="6093.38,3945.30 6095.42,3934.48 6142.99,3945.90 6139.29,3959.79 6093.38,3945.30"/>
    <poly id="building_6" type="building" color="200,200,200" fill="true" layer="2" shape="6142.75,3944.33 6136.37,3942.74 6112.12,3936.70 6112.80,3931.27 6107.35,3929.82 6108.69,3918.97 6139.31,3926.45 6137.00,3937.29 6144.70,3939.24 6142.75,3944.33"/>
    <poly id="building_7" type="building" color="200,200,200" fill="true" layer="2" shape="6150.90,3884.49 6155.18,3862.48 6163.34,3865.95 6166.59,3871.56 6163.79,3887.43 6150.90,3884.49"/>
    <poly id="building_8" type="building" color="200,200,200" fill="true" layer="2" shape="6135.66,3879.54 6139.59,3856.45 6150.47,3861.01 6146.18,3883.03 6135.66,3879.54"/>
    <poly id="building_9" type="building" color="200,200,200" fill="true" layer="2" shape="6022.63,4065.88 6049.62,4085.33 6058.03,4075.44 6053.33,4067.47 6041.37,4060.19 6033.04,4055.28 6022.63,4065.88"/>
    <poly id="building_10" type="building" color="200,200,200" fill="true" layer="2" shape="6016.57,4079.76 6024.60,4072.03 6038.37,4081.30 6047.07,4087.67 6038.84,4095.57 6016.57,4079.76"/>
    <poly id="building_11" type="building" color="200,200,200" fill="true" layer="2" shape="5962.08,4043.73 5967.15,4033.53 5974.52,4035.40 5977.95,4037.26 5975.26,4046.41 5962.08,4043.73"/>
    <poly id="building_12" type="building" color="200,200,200" fill="true" layer="2" shape="6002.54,4026.36 6007.87,4016.43 6018.40,4021.19 6011.74,4031.91 6002.54,4026.36"/>
    <poly id="building_13" type="building" color="200,200,200" fill="true" layer="2" shape="5986.24,4013.70 5987.07,4005.84 5996.30,4007.19 5995.47,4015.32 5986.24,4013.70"/>
    <poly id="building_14" type="building" color="200,200,200" fill="true" layer="2" shape="6027.67,4012.33 6032.73,4004.74 6035.63,4004.76 6038.28,4001.63 6048.81,4005.08 6045.62,4012.41 6042.95,4017.64 6027.67,4012.33"/>
    <poly id="building_15" type="building" color="200,200,200" fill="true" layer="2" shape="6010.67,3981.84 6015.49,3966.39 6029.47,3968.56 6038.42,3970.69 6037.33,3977.51 6027.31,3976.41 6025.17,3983.48 6010.67,3981.84"/>
    <poly id="building_16" type="building" color="200,200,200" fill="true" layer="2" shape="6058.56,3954.02 6063.08,3944.86 6073.11,3946.48 6066.19,3957.46 6058.56,3954.02"/>
    <poly id="building_17" type="building" color="200,200,200" fill="true" layer="2" shape="6064.98,4046.84 6072.15,4037.44 6082.15,4043.25 6077.37,4049.00 6073.95,4045.83 6071.29,4051.33 6064.98,4046.84"/>
    <poly id="building_18" type="building" color="200,200,200" fill="true" layer="2" shape="6138.74,3904.07 6142.76,3891.50 6159.37,3895.51 6157.72,3910.71 6156.08,3921.71 6140.78,3920.07 6138.74,3904.07"/>
    <poly id="building_19" type="building" color="200,200,200" fill="true" layer="2" shape="6117.38,3879.21 6121.48,3851.21 6115.44,3848.87 6112.03,3878.25 6117.38,3879.21"/>
    <poly id="building_20" type="building" color="200,200,200" fill="true" layer="2" shape="6082.98,3860.77 6085.55,3839.34 6092.91,3843.52 6090.93,3863.25 6082.98,3860.77"/>
    <poly id="building_21" type="building" color="200,200,200" fill="true" layer="2" shape="6090.93,3863.25 6093.30,3848.54 6094.05,3843.90 6104.83,3846.77 6103.85,3854.10 6096.08,3853.87 6095.27,3864.78 6090.93,3863.25"/>
    <poly id="building_22" type="building" color="200,200,200" fill="true" layer="2" shape="6056.87,3863.09 6062.30,3834.42 6072.86,3835.87 6068.13,3866.99 6056.87,3863.09"/>
    <poly id="building_23" type="building" color="200,200,200" fill="true" layer="2" shape="5904.48,3905.82 5909.35,3889.99 5933.26,3896.45 5923.99,3915.03 5904.48,3905.82"/>
    <poly id="building_24" type="building" color="200,200,200" fill="true" layer="2" shape="5866.01,3895.15 5874.89,3871.41 5882.07,3874.22 5873.57,3898.35 5866.01,3895.15"/>
    <poly id="building_25" type="building" color="200,200,200" fill="true" layer="2" shape="5884.44,3877.40 5890.09,3863.56 5908.80,3873.16 5899.96,3885.40 5884.44,3877.40"/>
    <poly id="building_26" type="building" color="200,200,200" fill="true" layer="2" shape="5889.82,3838.99 5893.04,3832.67 5923.29,3845.88 5921.27,3851.43 5889.82,3838.99"/>
    <poly id="building_27" type="building" color="200,200,200" fill="true" layer="2" shape="5934.76,3866.15 5942.51,3831.31 5956.85,3833.75 5947.50,3870.57 5934.76,3866.15"/>
    <poly id="building_28" type="building" color="200,200,200" fill="true" layer="2" shape="5904.35,3829.71 5912.85,3804.39 5929.17,3809.61 5917.10,3833.33 5904.35,3829.71"/>
    <poly id="building_29" type="building" color="200,200,200" fill="true" layer="2" shape="6299.06,3591.64 6328.51,3521.24 6334.51,3519.29 6348.06,3523.71 6308.61,3596.84 6299.06,3591.64"/>
    <poly id="building_30" type="building" color="200,200,200" fill="true" layer="2" shape="6420.29,3239.09 6425.68,3230.13 6428.54,3233.00 6424.82,3238.29 6420.29,3239.09"/>
    <poly id="building_31" type="building" color="200,200,200" fill="true" layer="2" shape="5813.43,4358.18 5814.60,4347.90 5831.96,4350.21 5833.44,4332.68 5841.28,4333.27 5838.62,4363.04 5829.94,4362.72 5830.79,4358.54 5813.43,4358.18"/>
    <poly id="building_32" type="building" color="200,200,200" fill="true" layer="2" shape="5780.60,4312.95 5769.20,4298.15 5775.38,4294.01 5778.72,4296.81 5795.03,4283.26 5791.97,4277.68 5797.88,4274.09 5811.54,4287.50 5807.88,4291.10 5804.81,4287.75 5784.29,4303.79 5787.91,4307.42 5780.60,4312.95"/>
    <poly id="building_33" type="building" color="200,200,200" fill="true" layer="2" shape="5809.12,4266.07 5799.85,4272.15 5814.89,4287.80 5841.89,4265.39 5836.59,4258.96 5817.20,4275.01 5809.12,4266.07"/>
    <poly id="building_34" type="building" color="200,200,200" fill="true" layer="2" shape="5780.01,4262.31 5785.91,4257.05 5798.46,4270.47 5791.43,4274.89 5780.01,4262.31"/>
    <poly id="building_35" type="building" color="200,200,200" fill="true" layer="2" shape="5869.01,4240.39 5873.82,4230.41 5886.40,4234.36 5881.29,4249.08 5871.23,4245.69 5869.01,4240.39"/>
    <poly id="building_36" type="building" color="200,200,200" fill="true" layer="2" shape="6304.96,3984.49 6285.68,3969.90 6294.93,3959.24 6306.30,3971.26 6313.29,3967.52 6321.80,3978.27 6323.40,3974.81 6328.55,3959.09 6340.57,3964.50 6344.98,3971.13 6333.17,3987.15 6336.56,4007.95 6329.21,4018.31 6307.45,3994.58 6304.96,3984.49"/>
    <poly id="building_37" type="building" color="200,200,200" fill="true" layer="2" shape="6028.78,3910.40 6026.94,3898.42 6040.57,3899.74 6041.16,3909.82 6028.78,3910.40"/>
    <poly id="building_38" type="building" color="200,200,200" fill="true" layer="2" shape="6047.24,4160.23 6051.19,4145.80 6068.61,4149.74 6071.49,4154.56 6065.17,4161.75 6060.77,4166.54 6047.24,4160.23"/>
    <poly id="building_39" type="building" color="200,200,200" fill="true" layer="2" shape="6077.46,4121.37 6084.32,4106.00 6109.49,4113.83 6109.44,4122.97 6101.65,4129.67 6077.46,4121.37"/>
    <poly id="building_40" type="building" color="200,200,200" fill="true" layer="2" shape="6093.07,4101.71 6091.69,4085.82 6108.75,4064.24 6126.60,4081.17 6119.26,4097.50 6090.63,4104.59 6093.07,4101.71"/>
    <poly id="building_41" type="building" color="200,200,200" fill="true" layer="2" shape="5394.53,3735.94 5407.87,3725.50 5408.21,3736.39 5405.02,3747.64 5394.53,3735.94"/>
    <poly id="building_42" type="building" color="200,200,200" fill="true" layer="2" shape="5246.32,3808.68 5265.13,3800.22 5274.49,3806.09 5271.34,3811.90 5262.31,3818.08 5254.87,3819.98 5246.32,3808.68"/>
    <poly id="building_43" type="building" color="200,200,200" fill="true" layer="2" shape="5338.34,3786.96 5333.31,3775.28 5343.52,3768.72 5349.72,3778.85 5338.34,3786.96"/>
    <poly id="building_44" type="building" color="200,200,200" fill="true" layer="2" shape="6263.39,3269.42 6249.54,3230.00 6295.69,3228.73 6301.87,3194.38 6309.42,3188.43 6346.00,3196.58 6344.78,3241.42 6304.67,3240.23 6310.53,3271.65 6304.01,3271.62 6299.01,3267.10 6263.39,3269.42"/>
    <poly id="water_45" type="water" color="170,211,223" fill="true" layer="0" shape="6166.75,4141.28 6164.12,4134.10 6161.47,4132.21 6160.38,4128.79 6163.22,4126.62 6168.38,4129.45 6170.10,4132.26 6174.31,4134.61 6172.57,4137.41 6166.75,4141.28"/>
    <poly id="water_46" type="water" color="170,211,223" fill="true" layer="0" shape="5556.96,4127.82 5565.66,4128.89 5569.27,4114.84 5558.95,4112.59 5556.96,4127.82"/>
    <poly id="water_47" type="water" color="170,211,223" fill="true" layer="0" shape="7041.80,3907.82 7024.30,3910.08 7029.87,3929.84 7034.58,3933.62 7040.23,3940.22 7043.52,3945.41 7048.71,3944.50 7046.88,3931.33 7046.48,3917.23 7041.80,3907.82"/>
    <poly id="water_48" type="water" color="170,211,223" fill="true" layer="0" shape="6026.96,3685.31 6054.62,3687.32 6060.69,3651.87 6031.40,3647.51 6026.96,3685.31"/>
    <poly id="water_49" type="water" color="170,211,223" fill="true" layer="0" shape="6813.99,3454.59 6814.13,3473.61 6826.41,3475.32 6828.16,3456.77 6813.99,3454.59"/>
    <poly id="water_50" type="water" color="170,211,223" fill="true" layer="0" shape="7110.99,3217.71 7107.41,3214.44 7104.91,3215.98 7105.05,3218.61 7104.89,3221.09 7103.32,3222.01 7102.52,3225.88 7106.89,3225.74 7108.77,3222.65 7112.04,3224.99 7115.00,3225.78 7116.57,3223.62 7118.30,3221.77 7118.46,3219.29 7113.95,3216.64 7110.99,3217.71"/>
    <poly id="building_51" type="building" color="200,200,200" fill="true" layer="2" shape="7129.70,4362.74 7142.97,4365.82 7147.49,4346.64 7134.22,4343.56 7129.70,4362.74"/>
    <poly id="building_52" type="building" color="200,200,200" fill="true" layer="2" shape="6529.23,4116.38 6552.09,4121.56 6554.62,4110.56 6531.74,4105.39 6529.23,4116.38"/>
    <poly id="building_53" type="building" color="200,200,200" fill="true" layer="2" shape="6254.11,3908.77 6265.38,3914.33 6273.43,3898.24 6262.15,3892.68 6254.11,3908.77"/>
    <poly id="building_54" type="building" color="200,200,200" fill="true" layer="2" shape="6211.59,3695.40 6209.66,3703.31 6215.17,3704.63 6214.33,3708.09 6223.12,3710.21 6225.89,3698.83 6211.59,3695.40"/>
    <poly id="building_55" type="building" color="200,200,200" fill="true" layer="2" shape="6303.74,4083.17 6316.60,4091.39 6324.92,4078.52 6312.08,4070.32 6303.74,4083.17"/>
    <poly id="building_56" type="building" color="200,200,200" fill="true" layer="2" shape="6282.17,3624.04 6308.46,3633.73 6311.58,3625.38 6305.40,3623.10 6311.85,3605.84 6291.75,3598.42 6282.17,3624.04"/>
    <poly id="building_57" type="building" color="200,200,200" fill="true" layer="2" shape="6242.03,3626.19 6250.86,3628.94 6254.46,3617.52 6245.62,3614.77 6242.03,3626.19"/>
    <poly id="building_58" type="building" color="200,200,200" fill="true" layer="2" shape="6436.38,4152.12 6446.24,4157.45 6454.57,4142.25 6444.72,4136.92 6436.38,4152.12"/>
    <poly id="building_59" type="building" color="200,200,200" fill="true" layer="2" shape="6982.77,4399.38 6990.13,4395.24 6977.93,4369.91 6969.52,4374.17 6982.77,4399.38"/>
    <poly id="building_60" type="building" color="200,200,200" fill="true" layer="2" shape="6376.46,3192.97 6385.40,3193.52 6388.02,3177.41 6381.88,3177.17 6381.74,3188.10 6376.18,3188.74 6376.46,3192.97"/>
    <poly id="water_61" type="water" color="170,211,223" fill="true" layer="0" shape="6320.47,4397.81 6315.66,4403.36 6307.79,4396.63 6312.60,4391.08 6320.47,4397.81"/>
    <poly id="building_62" type="building" color="200,200,200" fill="true" layer="2" shape="5746.80,4137.00 5751.30,4128.84 5764.07,4136.80 5760.41,4144.74 5746.80,4137.00"/>
    <poly id="building_63" type="building" color="200,200,200" fill="true" layer="2" shape="5728.21,4097.07 5729.52,4094.73 5732.55,4097.48 5731.15,4100.17 5728.21,4097.07"/>
    <poly id="building_64" type="building" color="200,200,200" fill="true" layer="2" shape="6228.38,4035.99 6228.38,4036.38 6228.77,4036.38 6228.75,4035.99 6228.38,4035.99"/>
    <poly id="building_65" type="building" color="200,200,200" fill="true" layer="2" shape="5999.26,4240.61 5993.41,4264.91 6034.83,4277.61 6044.19,4257.71 5999.26,4240.61"/>
    <poly id="building_66" type="building" color="200,200,200" fill="true" layer="2" shape="5550.57,4541.35 5543.38,4552.57 5556.24,4561.10 5566.03,4549.44 5550.57,4541.35"/>
    <poly id="building_67" type="building" color="200,200,200" fill="true" layer="2" shape="7213.19,3292.67 7205.32,3300.63 7214.23,3309.31 7219.88,3303.59 7217.93,3301.69 7220.14,3299.45 7220.03,3299.35 7213.19,3292.67"/>
</additional>
