<?xml version="1.0" encoding="UTF-8"?>

<!-- generated on 2026-03-15T16:32:21.509043+05:30 by Eclipse SUMO netconvert 1.25.0
<netconvertConfiguration xmlns:xsi="http://www.w3.org/2001/XMLSchema-instance" xsi:noNamespaceSchemaLocation="http://sumo.dlr.de/xsd/netconvertConfiguration.xsd">

    <input>
        <osm-files value="map.osm"/>
    </input>

    <output>
        <output-file value="area.net.xml"/>
    </output>

    <projection>
        <proj.utm value="true"/>
    </projection>

    <processing>
        <geometry.remove value="true"/>
        <roundabouts.guess value="true"/>
    </processing>

    <ramp_guessing>
        <ramps.guess value="true"/>
    </ramp_guessing>

    <junctions>
        <no-turnarounds value="true"/>
    </junctions>

</netconvertConfiguration>
-->

<net version="1.20" junctionCornerDetail="5" limitTurnSpeed="5.50" xmlns:xsi="http://www.w3.org/2001/XMLSchema-instance" xsi:noNamespaceSchemaLocation="http://sumo.dlr.de/xsd/net_file.xsd">

    <location netOffset="-690872.20,-965237.89" convBoundary="0.00,0.00,10835.77,9139.22" origBoundary="76.735036,8.728137,76.833565,8.810680" projParameter="+proj=utm +zone=43 +ellps=WGS84 +datum=WGS84 +units=m +no_defs"/>

    <type id="highway.living_street" priority="2" numLanes="1" speed="2.78" disallow="tram rail_urban rail rail_electric rail_fast ship container cable_car subway aircraft wheelchair scooter drone" oneway="0"/>
    <type id="highway.residential" priority="3" numLanes="1" speed="13.89" disallow="tram rail_urban rail rail_electric rail_fast ship container cable_car subway aircraft wheelchair scooter drone" oneway="0"/>
    <type id="highway.secondary" priority="11" numLanes="1" speed="27.78" disallow="tram rail_urban rail rail_electric rail_fast ship container cable_car subway aircraft wheelchair scooter drone" oneway="0"/>
    <type id="highway.service" priority="1" numLanes="1" speed="5.56" allow="pedestrian delivery bicycle" oneway="0"/>
    <type id="highway.tertiary" priority="10" numLanes="1" speed="22.22" disallow="tram rail_urban rail rail_electric rail_fast ship container cable_car subway aircraft wheelchair scooter drone" oneway="0"/>
    <type id="highway.trunk" priority="13" numLanes="2" speed="27.78" disallow="pedestrian bicycle tram rail_urban rail rail_electric rail_fast ship container cable_car subway aircraft wheelchair scooter drone" oneway="0"/>
    <type id="highway.unclassified" priority="4" numLanes="1" speed="13.89" disallow="tram rail_urban rail rail_electric rail_fast ship container cable_car subway aircraft wheelchair scooter drone" oneway="0"/>

    <edge id=":10613605911_0" function="internal">
        <lane id=":10613605911_0_0" index="0" disallow="tram rail_urban rail rail_electric rail_fast ship container cable_car subway aircraft wheelchair scooter drone" speed="6.29" length="9.04" shape="5370.23,3501.72 5368.32,3500.08 5366.40,3499.51 5364.46,3500.02 5362.50,3501.61"/>
    </edge>
    <edge id=":10613605911_1" function="internal">
        <lane id=":10613605911_1_0" index="0" disallow="tram rail_urban rail rail_electric rail_fast ship container cable_car subway aircraft wheelchair scooter drone" speed="13.89" length="13.88" shape="5370.23,3501.72 5367.95,3498.95 5366.04,3496.17 5364.48,3493.19 5363.24,3489.85"/>
    </edge>
    <edge id=":10613605911_2" function="internal">
        <lane id=":10613605911_2_0" index="0" disallow="tram rail_urban rail rail_electric rail_fast ship container cable_car subway aircraft wheelchair scooter drone" speed="13.89" length="12.55" shape="5366.30,3488.92 5367.44,3492.08 5368.78,3494.65 5370.46,3497.03 5372.64,3499.61"/>
    </edge>
    <edge id=":10613605911_3" function="internal">
        <lane id=":10613605911_3_0" index="0" disallow="tram rail_urban rail rail_electric rail_fast ship container cable_car subway aircraft wheelchair scooter drone" speed="10.12" length="3.25" shape="5366.30,3488.92 5366.80,3492.14"/>
    </edge>
    <edge id=":10613605911_6" function="internal">
        <lane id=":10613605911_6_0" index="0" disallow="tram rail_urban rail rail_electric rail_fast ship container cable_car subway aircraft wheelchair scooter drone" speed="10.12" length="10.62" shape="5366.80,3492.14 5366.33,3495.32 5364.90,3498.48 5362.50,3501.61"/>
    </edge>
    <edge id=":10613605911_4" function="internal">
        <lane id=":10613605911_4_0" index="0" disallow="tram rail_urban rail rail_electric rail_fast ship container cable_car subway aircraft wheelchair scooter drone" speed="8.88" length="10.54" shape="5360.15,3499.44 5362.04,3497.01 5363.18,3494.60 5363.58,3492.21 5363.24,3489.85"/>
    </edge>
    <edge id=":10613605911_5" function="internal">
        <lane id=":10613605911_5_0" index="0" disallow="tram rail_urban rail rail_electric rail_fast ship container cable_car subway aircraft wheelchair scooter drone" speed="7.82" length="14.61" shape="5360.15,3499.44 5363.31,3496.87 5366.44,3496.05 5369.55,3496.96 5372.64,3499.61"/>
    </edge>
    <edge id=":10613605913_0" function="internal">
        <lane id=":10613605913_0_0" index="0" disallow="tram rail_urban rail rail_electric rail_fast ship container cable_car subway aircraft wheelchair scooter drone" speed="27.78" length="14.87" shape="5303.57,3573.36 5290.43,3566.40"/>
    </edge>
    <edge id=":10613605913_1" function="internal">
        <lane id=":10613605913_1_0" index="0" disallow="tram rail_urban rail rail_electric rail_fast ship container cable_car subway aircraft wheelchair scooter drone" speed="7.50" length="4.62" shape="5303.57,3573.36 5299.83,3570.65"/>
    </edge>
    <edge id=":10613605913_6" function="internal">
        <lane id=":10613605913_6_0" index="0" disallow="tram rail_urban rail rail_electric rail_fast ship container cable_car subway aircraft wheelchair scooter drone" speed="7.50" length="11.24" shape="5299.83,3570.65 5298.35,3567.69 5299.13,3564.47 5302.18,3561.00"/>
    </edge>
    <edge id=":10613605913_2" function="internal">
        <lane id=":10613605913_2_0" index="0" disallow="tram rail_urban rail rail_electric rail_fast ship container cable_car subway aircraft wheelchair scooter drone" speed="5.85" length="9.12" shape="5304.27,3563.42 5302.51,3565.42 5302.06,3567.27 5302.92,3568.97 5305.07,3570.53"/>
    </edge>
    <edge id=":10613605913_3" function="internal">
        <lane id=":10613605913_3_0" index="0" disallow="tram rail_urban rail rail_electric rail_fast ship container cable_car subway aircraft wheelchair scooter drone" speed="9.65" length="15.09" shape="5304.27,3563.42 5300.62,3566.00 5297.10,3567.36 5293.70,3567.49 5290.43,3566.40"/>
    </edge>
    <edge id=":10613605913_4" function="internal">
        <lane id=":10613605913_4_0" index="0" disallow="tram rail_urban rail rail_electric rail_fast ship container cable_car subway aircraft wheelchair scooter drone" speed="8.40" length="11.25" shape="5291.92,3563.57 5294.25,3564.31 5296.74,3564.12 5299.38,3563.02 5302.18,3561.00"/>
    </edge>
    <edge id=":10613605913_5" function="internal">
        <lane id=":10613605913_5_0" index="0" disallow="tram rail_urban rail rail_electric rail_fast ship container cable_car subway aircraft wheelchair scooter drone" speed="27.78" length="14.87" shape="5291.92,3563.57 5305.07,3570.53"/>
    </edge>
    <edge id=":10613605919_0" function="internal">
        <lane id=":10613605919_0_0" index="0" disallow="tram rail_urban rail rail_electric rail_fast ship container cable_car subway aircraft wheelchair scooter drone" speed="6.11" length="9.06" shape="5397.97,3395.87 5396.86,3393.56 5395.32,3392.33 5393.35,3392.18 5390.96,3393.10"/>
    </edge>
    <edge id=":10613605919_1" function="internal">
        <lane id=":10613605919_1_0" index="0" disallow="tram rail_urban rail rail_electric rail_fast ship container cable_car subway aircraft wheelchair scooter drone" speed="13.89" length="14.54" shape="5397.97,3395.87 5393.58,3382.01"/>
    </edge>
    <edge id=":10613605919_2" function="internal">
        <lane id=":10613605919_2_0" index="0" disallow="tram rail_urban rail rail_electric rail_fast ship container cable_car subway aircraft wheelchair scooter drone" speed="13.89" length="14.54" shape="5396.63,3381.05 5401.02,3394.90"/>
    </edge>
    <edge id=":10613605919_3" function="internal">
        <lane id=":10613605919_3_0" index="0" disallow="tram rail_urban rail rail_electric rail_fast ship container cable_car subway aircraft wheelchair scooter drone" speed="8.77" length="3.79" shape="5396.63,3381.05 5397.17,3384.63 5397.13,3384.79"/>
    </edge>
    <edge id=":10613605919_6" function="internal">
        <lane id=":10613605919_6_0" index="0" disallow="tram rail_urban rail rail_electric rail_fast ship container cable_car subway aircraft wheelchair scooter drone" speed="8.77" length="10.79" shape="5397.13,3384.79 5396.41,3387.83 5394.34,3390.65 5390.96,3393.10"/>
    </edge>
    <edge id=":10613605919_4" function="internal">
        <lane id=":10613605919_4_0" index="0" disallow="tram rail_urban rail rail_electric rail_fast ship container cable_car subway aircraft wheelchair scooter drone" speed="7.41" length="10.15" shape="5389.40,3390.30 5391.83,3388.57 5393.33,3386.61 5393.92,3384.43 5393.58,3382.01"/>
    </edge>
    <edge id=":10613605919_5" function="internal">
        <lane id=":10613605919_5_0" index="0" disallow="tram rail_urban rail rail_electric rail_fast ship container cable_car subway aircraft wheelchair scooter drone" speed="7.68" length="15.03" shape="5389.40,3390.30 5393.36,3388.78 5396.62,3389.04 5399.17,3391.08 5401.02,3394.90"/>
    </edge>
    <edge id=":10613605922_0" function="internal">
        <lane id=":10613605922_0_0" index="0" disallow="tram rail_urban rail rail_electric rail_fast ship container cable_car subway aircraft wheelchair scooter drone" speed="13.07" length="15.32" shape="5485.01,3509.81 5481.46,3508.88 5477.66,3509.11 5473.81,3510.04 5470.11,3511.22"/>
    </edge>
    <edge id=":10613605922_1" function="internal">
        <lane id=":10613605922_1_0" index="0" disallow="tram rail_urban rail rail_electric rail_fast ship container cable_car subway aircraft wheelchair scooter drone" speed="13.89" length="17.21" shape="5485.01,3509.81 5469.56,3502.23"/>
    </edge>
    <edge id=":10613605922_2" function="internal">
        <lane id=":10613605922_2_0" index="0" disallow="tram rail_urban rail rail_electric rail_fast ship container cable_car subway aircraft wheelchair scooter drone" speed="13.89" length="17.21" shape="5470.97,3499.35 5486.42,3506.93"/>
    </edge>
    <edge id=":10613605922_3" function="internal">
        <lane id=":10613605922_3_0" index="0" disallow="tram rail_urban rail rail_electric rail_fast ship container cable_car subway aircraft wheelchair scooter drone" speed="7.44" length="6.10" shape="5470.97,3499.35 5476.11,3502.63"/>
    </edge>
    <edge id=":10613605922_6" function="internal">
        <lane id=":10613605922_6_0" index="0" disallow="tram rail_urban rail rail_electric rail_fast ship container cable_car subway aircraft wheelchair scooter drone" speed="7.44" length="13.43" shape="5476.11,3502.63 5476.26,3502.72 5477.88,3505.82 5475.83,3508.65 5470.11,3511.22"/>
    </edge>
    <edge id=":10613605922_4" function="internal">
        <lane id=":10613605922_4_0" index="0" disallow="tram rail_urban rail rail_electric rail_fast ship container cable_car subway aircraft wheelchair scooter drone" speed="5.47" length="9.79" shape="5469.13,3508.18 5471.99,3506.89 5473.02,3505.47 5472.21,3503.91 5469.56,3502.23"/>
    </edge>
    <edge id=":10613605922_5" function="internal">
        <lane id=":10613605922_5_0" index="0" disallow="tram rail_urban rail rail_electric rail_fast ship container cable_car subway aircraft wheelchair scooter drone" speed="13.89" length="17.65" shape="5469.13,3508.18 5473.20,3507.02 5477.87,3506.15 5482.49,3505.98 5486.42,3506.93"/>
    </edge>
    <edge id=":11332308659_0" function="internal">
        <lane id=":11332308659_0_0" index="0" disallow="pedestrian bicycle tram rail_urban rail rail_electric rail_fast ship container cable_car subway aircraft wheelchair scooter drone" speed="19.44" length="14.43" shape="6422.01,3204.57 6416.97,3218.09"/>
    </edge>
    <edge id=":11332308659_1" function="internal">
        <lane id=":11332308659_1_0" index="0" disallow="pedestrian bicycle tram rail_urban rail rail_electric rail_fast ship container cable_car subway aircraft wheelchair scooter drone" speed="8.36" length="3.91" shape="6422.01,3204.57 6420.20,3207.84 6420.07,3207.94"/>
    </edge>
    <edge id=":11332308659_6" function="internal">
        <lane id=":11332308659_6_0" index="0" disallow="pedestrian bicycle tram rail_urban rail rail_electric rail_fast ship container cable_car subway aircraft wheelchair scooter drone" speed="8.36" length="10.45" shape="6420.07,3207.94 6417.66,3209.86 6414.39,3210.61 6410.40,3210.12"/>
    </edge>
    <edge id=":11332308659_2" function="internal">
        <lane id=":11332308659_2_0" index="0" disallow="pedestrian bicycle tram rail_urban rail rail_electric rail_fast ship container cable_car subway aircraft wheelchair scooter drone" speed="6.93" length="9.58" shape="6411.20,3207.02 6413.91,3207.37 6416.11,3206.89 6417.81,3205.58 6419.01,3203.45"/>
    </edge>
    <edge id=":11332308659_3" function="internal">
        <lane id=":11332308659_3_0" index="0" disallow="pedestrian bicycle tram rail_urban rail rail_electric rail_fast ship container cable_car subway aircraft wheelchair scooter drone" speed="7.83" length="14.60" shape="6411.20,3207.02 6414.95,3208.59 6417.16,3210.96 6417.83,3214.12 6416.97,3218.09"/>
    </edge>
    <edge id=":11332308659_4" function="internal">
        <lane id=":11332308659_4_0" index="0" disallow="pedestrian bicycle tram rail_urban rail rail_electric rail_fast ship container cable_car subway aircraft wheelchair scooter drone" speed="6.29" length="9.04" shape="6413.98,3216.97 6414.51,3214.52 6414.09,3212.55 6412.72,3211.09 6410.40,3210.12"/>
    </edge>
    <edge id=":11332308659_5" function="internal">
        <lane id=":11332308659_5_0" index="0" disallow="pedestrian bicycle tram rail_urban rail rail_electric rail_fast ship container cable_car subway aircraft wheelchair scooter drone" speed="19.44" length="14.43" shape="6413.98,3216.97 6419.01,3203.45"/>
    </edge>
    <edge id=":11332314283_0" function="internal">
        <lane id=":11332314283_0_0" index="0" disallow="tram rail_urban rail rail_electric rail_fast ship container cable_car subway aircraft wheelchair scooter drone" speed="8.16" length="11.77" shape="5900.19,3682.33 5897.23,3681.67 5894.52,3682.00 5892.07,3683.34 5889.86,3685.68"/>
    </edge>
    <edge id=":11332314283_1" function="internal">
        <lane id=":11332314283_1_0" index="0" disallow="tram rail_urban rail rail_electric rail_fast ship container cable_car subway aircraft wheelchair scooter drone" speed="13.89" length="16.06" shape="5900.19,3682.33 5885.14,3676.75"/>
    </edge>
    <edge id=":11332314283_2" function="internal">
        <lane id=":11332314283_2_0" index="0" disallow="tram rail_urban rail rail_electric rail_fast ship container cable_car subway aircraft wheelchair scooter drone" speed="7.72" length="4.19" shape="5900.19,3682.33 5896.52,3680.31"/>
    </edge>
    <edge id=":11332314283_12" function="internal">
        <lane id=":11332314283_12_0" index="0" disallow="tram rail_urban rail rail_electric rail_fast ship container cable_car subway aircraft wheelchair scooter drone" speed="7.72" length="10.71" shape="5896.52,3680.31 5894.61,3677.66 5894.46,3674.41 5896.08,3670.53"/>
    </edge>
    <edge id=":11332314283_3" function="internal">
        <lane id=":11332314283_3_0" index="0" disallow="tram rail_urban rail rail_electric rail_fast ship container cable_car subway aircraft wheelchair scooter drone" speed="6.16" length="9.05" shape="5898.82,3672.17 5897.84,3674.53 5897.93,3676.50 5899.09,3678.11 5901.32,3679.34"/>
    </edge>
    <edge id=":11332314283_4" function="internal">
        <lane id=":11332314283_4_0" index="0" disallow="tram rail_urban rail rail_electric rail_fast ship container cable_car subway aircraft wheelchair scooter drone" speed="13.89" length="16.21" shape="5898.82,3672.17 5896.76,3675.53 5894.49,3679.02 5892.15,3682.47 5889.86,3685.68"/>
    </edge>
    <edge id=":11332314283_5" function="internal">
        <lane id=":11332314283_5_0" index="0" disallow="tram rail_urban rail rail_electric rail_fast ship container cable_car subway aircraft wheelchair scooter drone" speed="9.07" length="15.86" shape="5898.82,3672.17 5896.21,3675.40 5893.06,3677.24 5889.37,3677.69 5885.14,3676.75"/>
    </edge>
    <edge id=":11332314283_6" function="internal">
        <lane id=":11332314283_6_0" index="0" disallow="tram rail_urban rail rail_electric rail_fast ship container cable_car subway aircraft wheelchair scooter drone" speed="7.76" length="11.37" shape="5886.23,3673.74 5889.29,3674.43 5891.95,3674.13 5894.21,3672.83 5896.08,3670.53"/>
    </edge>
    <edge id=":11332314283_7" function="internal">
        <lane id=":11332314283_7_0" index="0" disallow="tram rail_urban rail rail_electric rail_fast ship container cable_car subway aircraft wheelchair scooter drone" speed="13.89" length="16.09" shape="5886.23,3673.74 5901.32,3679.34"/>
    </edge>
    <edge id=":11332314283_8" function="internal">
        <lane id=":11332314283_8_0" index="0" disallow="tram rail_urban rail rail_electric rail_fast ship container cable_car subway aircraft wheelchair scooter drone" speed="7.59" length="4.41" shape="5886.23,3673.74 5890.12,3675.82"/>
    </edge>
    <edge id=":11332314283_13" function="internal">
        <lane id=":11332314283_13_0" index="0" disallow="tram rail_urban rail rail_electric rail_fast ship container cable_car subway aircraft wheelchair scooter drone" speed="7.59" length="10.98" shape="5890.12,3675.82 5892.02,3678.50 5891.93,3681.79 5889.86,3685.68"/>
    </edge>
    <edge id=":11332314283_9" function="internal">
        <lane id=":11332314283_9_0" index="0" disallow="tram rail_urban rail rail_electric rail_fast ship container cable_car subway aircraft wheelchair scooter drone" speed="5.98" length="9.08" shape="5887.28,3683.79 5888.50,3681.50 5888.55,3679.56 5887.43,3677.97 5885.14,3676.75"/>
    </edge>
    <edge id=":11332314283_10" function="internal">
        <lane id=":11332314283_10_0" index="0" disallow="tram rail_urban rail rail_electric rail_fast ship container cable_car subway aircraft wheelchair scooter drone" speed="13.89" length="15.92" shape="5887.28,3683.79 5889.54,3680.62 5891.82,3677.26 5894.03,3673.85 5896.08,3670.53"/>
    </edge>
    <edge id=":11332314283_11" function="internal">
        <lane id=":11332314283_11_0" index="0" disallow="tram rail_urban rail rail_electric rail_fast ship container cable_car subway aircraft wheelchair scooter drone" speed="9.43" length="15.98" shape="5887.28,3683.79 5890.25,3680.65 5893.58,3678.85 5897.27,3678.42 5901.32,3679.34"/>
    </edge>
    <edge id=":11332314287_0" function="internal">
        <lane id=":11332314287_0_0" index="0" disallow="tram rail_urban rail rail_electric rail_fast ship container cable_car subway aircraft wheelchair scooter drone" speed="8.68" length="11.63" shape="5728.50,3613.73 5726.11,3613.21 5723.57,3613.63 5720.90,3614.99 5718.10,3617.28"/>
    </edge>
    <edge id=":11332314287_1" function="internal">
        <lane id=":11332314287_1_0" index="0" disallow="tram rail_urban rail rail_electric rail_fast ship container cable_car subway aircraft wheelchair scooter drone" speed="13.89" length="15.08" shape="5728.50,3613.73 5714.51,3608.10"/>
    </edge>
    <edge id=":11332314287_2" function="internal">
        <lane id=":11332314287_2_0" index="0" disallow="tram rail_urban rail rail_electric rail_fast ship container cable_car subway aircraft wheelchair scooter drone" speed="13.89" length="15.17" shape="5715.67,3605.12 5729.75,3610.78"/>
    </edge>
    <edge id=":11332314287_3" function="internal">
        <lane id=":11332314287_3_0" index="0" disallow="tram rail_urban rail rail_electric rail_fast ship container cable_car subway aircraft wheelchair scooter drone" speed="7.45" length="4.78" shape="5715.67,3605.12 5719.85,3607.45"/>
    </edge>
    <edge id=":11332314287_6" function="internal">
        <lane id=":11332314287_6_0" index="0" disallow="tram rail_urban rail rail_electric rail_fast ship container cable_car subway aircraft wheelchair scooter drone" speed="7.45" length="11.44" shape="5719.85,3607.45 5721.65,3610.25 5721.07,3613.52 5718.10,3617.28"/>
    </edge>
    <edge id=":11332314287_4" function="internal">
        <lane id=":11332314287_4_0" index="0" disallow="tram rail_urban rail rail_electric rail_fast ship container cable_car subway aircraft wheelchair scooter drone" speed="5.77" length="9.16" shape="5715.88,3614.97 5717.56,3612.85 5717.89,3611.00 5716.87,3609.42 5714.51,3608.10"/>
    </edge>
    <edge id=":11332314287_5" function="internal">
        <lane id=":11332314287_5_0" index="0" disallow="tram rail_urban rail rail_electric rail_fast ship container cable_car subway aircraft wheelchair scooter drone" speed="9.90" length="15.36" shape="5715.88,3614.97 5719.47,3612.09 5722.98,3610.44 5726.41,3610.00 5729.75,3610.78"/>
    </edge>
    <edge id=":11332314290_0" function="internal">
        <lane id=":11332314290_0_0" index="0" disallow="tram rail_urban rail rail_electric rail_fast ship container cable_car subway aircraft wheelchair scooter drone" speed="27.78" length="14.47" shape="5650.68,3718.13 5636.69,3714.43"/>
    </edge>
    <edge id=":11332314290_1" function="internal">
        <lane id=":11332314290_1_0" index="0" disallow="tram rail_urban rail rail_electric rail_fast ship container cable_car subway aircraft wheelchair scooter drone" speed="7.76" length="4.13" shape="5650.68,3718.13 5646.87,3716.51"/>
    </edge>
    <edge id=":11332314290_6" function="internal">
        <lane id=":11332314290_6_0" index="0" disallow="tram rail_urban rail rail_electric rail_fast ship container cable_car subway aircraft wheelchair scooter drone" speed="7.76" length="10.64" shape="5646.87,3716.51 5644.69,3714.10 5644.13,3710.90 5645.19,3706.90"/>
    </edge>
    <edge id=":11332314290_2" function="internal">
        <lane id=":11332314290_2_0" index="0" disallow="tram rail_urban rail rail_electric rail_fast ship container cable_car subway aircraft wheelchair scooter drone" speed="6.22" length="9.05" shape="5648.13,3708.16 5647.48,3710.60 5647.83,3712.56 5649.16,3714.04 5651.49,3715.03"/>
    </edge>
    <edge id=":11332314290_3" function="internal">
        <lane id=":11332314290_3_0" index="0" disallow="tram rail_urban rail rail_electric rail_fast ship container cable_car subway aircraft wheelchair scooter drone" speed="8.52" length="14.44" shape="5648.13,3708.16 5646.08,3711.68 5643.49,3713.90 5640.36,3714.82 5636.69,3714.43"/>
    </edge>
    <edge id=":11332314290_4" function="internal">
        <lane id=":11332314290_4_0" index="0" disallow="tram rail_urban rail rail_electric rail_fast ship container cable_car subway aircraft wheelchair scooter drone" speed="7.13" length="9.81" shape="5637.51,3711.33 5639.94,3711.57 5642.03,3710.91 5643.78,3709.36 5645.19,3706.90"/>
    </edge>
    <edge id=":11332314290_5" function="internal">
        <lane id=":11332314290_5_0" index="0" disallow="tram rail_urban rail rail_electric rail_fast ship container cable_car subway aircraft wheelchair scooter drone" speed="27.78" length="14.47" shape="5637.51,3711.33 5651.49,3715.03"/>
    </edge>
    <edge id=":12094566142_0" function="internal">
        <lane id=":12094566142_0_0" index="0" disallow="pedestrian bicycle tram rail_urban rail rail_electric rail_fast ship container cable_car subway aircraft wheelchair scooter drone" speed="7.78" length="10.58" shape="5978.51,4209.66 5975.48,4208.76 5972.85,4208.70 5970.63,4209.49 5968.83,4211.13"/>
    </edge>
    <edge id=":12094566142_1" function="internal">
        <lane id=":12094566142_1_0" index="0" disallow="pedestrian bicycle tram rail_urban rail rail_electric rail_fast ship container cable_car subway aircraft wheelchair scooter drone" speed="7.60" length="15.35" shape="5978.51,4209.66 5974.73,4207.44 5972.93,4204.69 5973.12,4201.41 5975.29,4197.60"/>
    </edge>
    <edge id=":12094566142_2" function="internal">
        <lane id=":12094566142_2_0" index="0" disallow="pedestrian bicycle tram rail_urban rail rail_electric rail_fast ship container cable_car subway aircraft wheelchair scooter drone" speed="6.00" length="9.08" shape="5977.82,4199.56 5976.53,4201.82 5976.42,4203.76 5977.48,4205.39 5979.72,4206.70"/>
    </edge>
    <edge id=":12094566142_3" function="internal">
        <lane id=":12094566142_3_0" index="0" disallow="pedestrian bicycle tram rail_urban rail rail_electric rail_fast ship container cable_car subway aircraft wheelchair scooter drone" speed="19.44" length="14.65" shape="5977.82,4199.56 5968.83,4211.13"/>
    </edge>
    <edge id=":12094566142_4" function="internal">
        <lane id=":12094566142_4_0" index="0" disallow="pedestrian bicycle tram rail_urban rail rail_electric rail_fast ship container cable_car subway aircraft wheelchair scooter drone" speed="19.44" length="14.65" shape="5966.30,4209.16 5975.29,4197.60"/>
    </edge>
    <edge id=":12094566142_5" function="internal">
        <lane id=":12094566142_5_0" index="0" disallow="pedestrian bicycle tram rail_urban rail rail_electric rail_fast ship container cable_car subway aircraft wheelchair scooter drone" speed="9.10" length="3.71" shape="5966.30,4209.16 5968.90,4206.75 5969.05,4206.69"/>
    </edge>
    <edge id=":12094566142_6" function="internal">
        <lane id=":12094566142_6_0" index="0" disallow="pedestrian bicycle tram rail_urban rail rail_electric rail_fast ship container cable_car subway aircraft wheelchair scooter drone" speed="9.10" length="11.06" shape="5969.05,4206.69 5972.00,4205.53 5975.61,4205.51 5979.72,4206.70"/>
    </edge>
    <edge id=":12094566150_0" function="internal">
        <lane id=":12094566150_0_0" index="0" disallow="tram rail_urban rail rail_electric rail_fast ship container cable_car subway aircraft wheelchair scooter drone" speed="13.89" length="14.73" shape="6581.92,4491.69 6576.10,4505.23"/>
    </edge>
    <edge id=":12094566150_1" function="internal">
        <lane id=":12094566150_1_0" index="0" disallow="tram rail_urban rail rail_electric rail_fast ship container cable_car subway aircraft wheelchair scooter drone" speed="9.33" length="3.67" shape="6581.92,4491.69 6580.03,4494.64 6579.89,4494.74"/>
    </edge>
    <edge id=":12094566150_6" function="internal">
        <lane id=":12094566150_6_0" index="0" disallow="tram rail_urban rail rail_electric rail_fast ship container cable_car subway aircraft wheelchair scooter drone" speed="9.33" length="11.23" shape="6579.89,4494.74 6577.32,4496.63 6573.78,4497.65 6569.42,4497.71"/>
    </edge>
    <edge id=":12094566150_2" function="internal">
        <lane id=":12094566150_2_0" index="0" disallow="tram rail_urban rail rail_electric rail_fast ship container cable_car subway aircraft wheelchair scooter drone" speed="8.05" length="10.87" shape="6569.70,4494.52 6573.00,4494.51 6575.64,4493.82 6577.63,4492.46 6578.98,4490.43"/>
    </edge>
    <edge id=":12094566150_3" function="internal">
        <lane id=":12094566150_3_0" index="0" disallow="tram rail_urban rail rail_electric rail_fast ship container cable_car subway aircraft wheelchair scooter drone" speed="7.55" length="15.57" shape="6569.70,4494.52 6574.07,4495.54 6576.60,4497.67 6577.27,4500.90 6576.10,4505.23"/>
    </edge>
    <edge id=":12094566150_4" function="internal">
        <lane id=":12094566150_4_0" index="0" disallow="tram rail_urban rail rail_electric rail_fast ship container cable_car subway aircraft wheelchair scooter drone" speed="5.93" length="9.10" shape="6573.16,4503.96 6573.84,4501.43 6573.45,4499.55 6571.98,4498.31 6569.42,4497.71"/>
    </edge>
    <edge id=":12094566150_5" function="internal">
        <lane id=":12094566150_5_0" index="0" disallow="tram rail_urban rail rail_electric rail_fast ship container cable_car subway aircraft wheelchair scooter drone" speed="13.89" length="14.74" shape="6573.16,4503.96 6578.98,4490.43"/>
    </edge>
    <edge id=":12094566152_0" function="internal">
        <lane id=":12094566152_0_0" index="0" disallow="tram rail_urban rail rail_electric rail_fast ship container cable_car subway aircraft wheelchair scooter drone" speed="7.11" length="9.80" shape="6465.11,4483.93 6462.30,4483.66 6460.02,4484.18 6458.27,4485.50 6457.06,4487.62"/>
    </edge>
    <edge id=":12094566152_1" function="internal">
        <lane id=":12094566152_1_0" index="0" disallow="tram rail_urban rail rail_electric rail_fast ship container cable_car subway aircraft wheelchair scooter drone" speed="7.77" length="14.76" shape="6465.11,4483.93 6461.24,4482.48 6458.96,4480.17 6458.26,4476.99 6459.14,4472.96"/>
    </edge>
    <edge id=":12094566152_2" function="internal">
        <lane id=":12094566152_2_0" index="0" disallow="tram rail_urban rail rail_electric rail_fast ship container cable_car subway aircraft wheelchair scooter drone" speed="6.22" length="9.05" shape="6462.14,4474.08 6461.60,4476.55 6462.03,4478.50 6463.43,4479.92 6465.79,4480.81"/>
    </edge>
    <edge id=":12094566152_3" function="internal">
        <lane id=":12094566152_3_0" index="0" disallow="tram rail_urban rail rail_electric rail_fast ship container cable_car subway aircraft wheelchair scooter drone" speed="13.89" length="14.46" shape="6462.14,4474.08 6457.06,4487.62"/>
    </edge>
    <edge id=":12094566152_4" function="internal">
        <lane id=":12094566152_4_0" index="0" disallow="tram rail_urban rail rail_electric rail_fast ship container cable_car subway aircraft wheelchair scooter drone" speed="13.89" length="14.46" shape="6454.06,4486.50 6459.14,4472.96"/>
    </edge>
    <edge id=":12094566152_5" function="internal">