<additional>
    <poly id="building_0" type="building" color="200,200,200" fill="true" layer="2" shape="2970.89,3351.58 2981.99,3348.41 2985.06,3355.17 2978.65,3365.41 2970.89,3351.58"/>
    <poly id="building_1" type="building" color="200,200,200" fill="true" layer="2" shape="2783.68,3572.35 2795.61,3568.59 2790.30,3551.98 2778.38,3555.74 2783.68,3572.35"/>
    <poly id="building_2" type="building" color="200,200,200" fill="true" layer="2" shape="3027.61,3488.13 3013.41,3464.04 3042.49,3449.40 3054.66,3475.93 3040.97,3481.86 3027.61,3488.13"/>
    <poly id="building_3" type="building" color="200,200,200" fill="true" layer="2" shape="2403.88,3653.65 2401.41,3692.51 2401.29,3716.08 2369.19,3723.68 2372.40,3734.99 2413.62,3723.67 2412.93,3709.38 2414.10,3679.79 2417.01,3654.47 2403.88,3653.65"/>
    <poly id="building_4" type="building" color="200,200,200" fill="true" layer="2" shape="2348.46,3743.55 2317.85,3678.51 2338.12,3669.10 2368.70,3734.16 2348.46,3743.55"/>
    <poly id="building_5" type="building" color="200,200,200" fill="true" layer="2" shape="2929.51,3380.83 2956.37,3362.87 2959.80,3367.94 2967.65,3362.69 2958.62,3349.35 2923.90,3372.55 2929.51,3380.83"/>
    <poly id="building_6" type="building" color="200,200,200" fill="true" layer="2" shape="2913.67,3359.52 2940.72,3342.04 2936.38,3334.46 2909.55,3353.09 2913.67,3359.52"/>
    <poly id="building_7" type="building" color="200,200,200" fill="true" layer="2" shape="2946.21,3349.62 2955.68,3344.64 2940.13,3322.35 2932.50,3327.12 2946.21,3349.62"/>
    <poly id="building_8" type="building" color="200,200,200" fill="true" layer="2" shape="3769.03,3045.29 3780.29,3052.12 3788.29,3050.23 3788.52,3043.85 3775.90,3035.45 3771.05,3031.35 3766.51,3042.18 3769.03,3045.29"/>
    <poly id="water_9" type="water" color="170,211,223" fill="true" layer="0" shape="2386.49,3294.07 2370.68,3268.44 2378.06,3233.21 2398.64,3232.30 2408.24,3266.59 2398.33,3293.11 2386.49,3294.07"/>
    <poly id="water_10" type="water" color="170,211,223" fill="true" layer="0" shape="3518.90,3588.36 3536.12,3538.19 3554.07,3543.43 3538.39,3594.35 3518.90,3588.36"/>
    <poly id="building_11" type="building" color="200,200,200" fill="true" layer="2" shape="3870.60,2725.45 3874.89,2727.99 3878.41,2723.56 3875.51,2721.22 3870.60,2725.45"/>
    <poly id="building_12" type="building" color="200,200,200" fill="true" layer="2" shape="3882.70,2723.97 3879.03,2717.94 3886.66,2710.81 3890.14,2718.20 3882.70,2723.97"/>
    <poly id="building_13" type="building" color="200,200,200" fill="true" layer="2" shape="3888.20,2679.45 3893.10,2675.60 3906.24,2696.78 3900.37,2699.86 3888.20,2679.45"/>
    <poly id="building_14" type="building" color="200,200,200" fill="true" layer="2" shape="3683.09,2760.88 3695.96,2759.20 3692.89,2750.85 3681.78,2752.34 3683.09,2760.88"/>
    <poly id="building_15" type="building" color="200,200,200" fill="true" layer="2" shape="3689.81,2786.62 3686.87,2777.42 3696.52,2774.38 3699.47,2783.57 3689.81,2786.62"/>
    <poly id="building_16" type="building" color="200,200,200" fill="true" layer="2" shape="3633.10,2854.15 3629.82,2847.35 3640.16,2844.69 3643.24,2853.04 3633.10,2854.15"/>
    <poly id="building_17" type="building" color="200,200,200" fill="true" layer="2" shape="3575.79,2881.63 3571.58,2871.48 3557.99,2877.04 3562.20,2887.19 3575.79,2881.63"/>
    <poly id="building_18" type="building" color="200,200,200" fill="true" layer="2" shape="3578.55,2959.01 3586.17,2955.57 3580.99,2939.28 3577.47,2941.38 3578.43,2943.71 3575.30,2946.79 3578.55,2959.01"/>
    <poly id="building_19" type="building" color="200,200,200" fill="true" layer="2" shape="3502.88,3040.53 3499.76,3040.90 3498.40,3039.15 3493.13,3040.09 3489.69,3028.45 3501.20,3025.22 3502.53,3032.20 3496.68,3032.94 3497.25,3035.86 3501.14,3037.23 3502.88,3040.53"/>
    <poly id="building_20" type="building" color="200,200,200" fill="true" layer="2" shape="3509.94,3031.85 3507.43,3026.81 3507.69,3021.22 3516.24,3021.62 3518.08,3030.10 3509.94,3031.85"/>
    <poly id="building_21" type="building" color="200,200,200" fill="true" layer="2" shape="3348.96,2990.14 3347.02,2987.62 3349.29,2984.28 3345.88,2982.00 3343.56,2972.78 3352.87,2970.46 3357.31,2988.06 3348.96,2990.14"/>
    <poly id="building_22" type="building" color="200,200,200" fill="true" layer="2" shape="3291.55,2983.81 3290.74,2978.54 3315.03,2974.85 3315.84,2980.14 3291.55,2983.81"/>
    <poly id="building_23" type="building" color="200,200,200" fill="true" layer="2" shape="3259.76,3003.13 3258.16,2986.99 3262.23,2986.59 3262.81,2988.14 3266.02,2987.83 3267.46,3002.38 3259.76,3003.13"/>
    <poly id="building_24" type="building" color="200,200,200" fill="true" layer="2" shape="3265.29,3028.26 3264.95,3025.34 3262.23,3024.36 3260.62,3010.94 3267.42,3010.14 3269.54,3027.75 3265.29,3028.26"/>
    <poly id="building_25" type="building" color="200,200,200" fill="true" layer="2" shape="3346.47,3049.43 3345.21,3045.58 3340.83,3046.84 3340.08,3043.00 3350.89,3039.74 3352.91,3047.16 3346.47,3049.43"/>
    <poly id="building_26" type="building" color="200,200,200" fill="true" layer="2" shape="3370.03,3070.50 3365.20,3058.46 3378.83,3056.74 3381.11,3065.70 3370.03,3070.50"/>
    <poly id="building_27" type="building" color="200,200,200" fill="true" layer="2" shape="3359.96,3076.83 3361.23,3080.93 3366.89,3078.66 3361.56,3065.09 3353.32,3068.11 3354.59,3072.20 3357.16,3070.94 3359.96,3076.83"/>
    <poly id="building_28" type="building" color="200,200,200" fill="true" layer="2" shape="3293.44,3056.55 3299.40,3049.43 3295.61,3036.89 3291.24,3036.36 3290.31,3032.27 3288.07,3032.77 3293.44,3056.55"/>
    <poly id="building_29" type="building" color="200,200,200" fill="true" layer="2" shape="3219.91,3050.07 3225.52,3048.24 3227.48,3054.15 3221.86,3055.97 3219.91,3050.07"/>
    <poly id="building_30" type="building" color="200,200,200" fill="true" layer="2" shape="3229.36,3051.10 3228.87,3046.25 3238.16,3041.45 3238.64,3047.58 3229.36,3051.10"/>
    <poly id="building_31" type="building" color="200,200,200" fill="true" layer="2" shape="3251.77,3045.35 3250.27,3037.16 3257.73,3036.69 3260.26,3044.37 3251.77,3045.35"/>
    <poly id="building_32" type="building" color="200,200,200" fill="true" layer="2" shape="3327.25,3035.86 3333.99,3035.07 3332.94,3026.29 3326.20,3027.08 3327.25,3035.86"/>
    <poly id="building_33" type="building" color="200,200,200" fill="true" layer="2" shape="3191.19,3069.43 3187.94,3061.62 3195.98,3058.32 3199.24,3066.13 3191.19,3069.43"/>
    <poly id="building_34" type="building" color="200,200,200" fill="true" layer="2" shape="3144.84,3135.38 3153.34,3131.67 3147.63,3118.74 3139.14,3122.46 3144.84,3135.38"/>
    <poly id="building_35" type="building" color="200,200,200" fill="true" layer="2" shape="3170.18,3185.12 3180.73,3180.12 3190.42,3176.97 3191.91,3182.72 3181.70,3187.37 3174.05,3191.55 3172.78,3189.45 3170.18,3185.12"/>
    <poly id="building_36" type="building" color="200,200,200" fill="true" layer="2" shape="3172.73,3215.82 3176.26,3223.26 3169.28,3227.60 3166.61,3219.16 3172.73,3215.82"/>
    <poly id="building_37" type="building" color="200,200,200" fill="true" layer="2" shape="3111.25,3224.94 3114.94,3232.88 3129.07,3225.03 3125.71,3218.44 3111.25,3224.94"/>
    <poly id="building_38" type="building" color="200,200,200" fill="true" layer="2" shape="3101.45,3250.18 3099.44,3244.60 3115.08,3239.63 3116.58,3244.02 3101.45,3250.18"/>
    <poly id="building_39" type="building" color="200,200,200" fill="true" layer="2" shape="3103.42,3263.51 3109.71,3260.84 3116.09,3274.52 3110.12,3278.89 3106.09,3272.79 3108.14,3270.78 3106.12,3266.89 3103.42,3263.51"/>
    <poly id="building_40" type="building" color="200,200,200" fill="true" layer="2" shape="3007.02,3296.54 3005.35,3291.82 3015.89,3289.18 3017.39,3293.40 3007.02,3296.54"/>
    <poly id="building_41" type="building" color="200,200,200" fill="true" layer="2" shape="3002.70,3311.70 2999.14,3312.52 3002.50,3319.78 3012.54,3314.78 3007.67,3303.42 3003.64,3294.00 2996.32,3299.86 3002.70,3311.70"/>
    <poly id="building_42" type="building" color="200,200,200" fill="true" layer="2" shape="2898.41,3371.23 2887.44,3374.72 2875.57,3337.80 2886.53,3334.32 2898.41,3371.23"/>
    <poly id="building_43" type="building" color="200,200,200" fill="true" layer="2" shape="2899.89,3436.59 2890.17,3447.49 2885.97,3438.70 2881.62,3428.39 2879.27,3422.32 2885.22,3420.66 2886.88,3426.74 2892.15,3426.77 2899.89,3436.59"/>
    <poly id="building_44" type="building" color="200,200,200" fill="true" layer="2" shape="2984.98,3423.71 2987.66,3430.81 3009.26,3420.97 3001.32,3413.68 2984.98,3423.71"/>
    <poly id="building_45" type="building" color="200,200,200" fill="true" layer="2" shape="2969.48,3433.74 2962.75,3422.58 2967.35,3420.25 2969.88,3422.62 2975.66,3420.46 2981.57,3426.56 2979.35,3429.25 2974.63,3424.33 2969.86,3427.51 2972.21,3431.91 2969.48,3433.74"/>
    <poly id="building_46" type="building" color="200,200,200" fill="true" layer="2" shape="3144.78,3336.90 3140.91,3339.69 3142.68,3344.56 3147.84,3341.52 3148.58,3346.38 3152.71,3344.86 3150.42,3341.01 3144.78,3336.90"/>
    <poly id="building_47" type="building" color="200,200,200" fill="true" layer="2" shape="3155.01,3300.16 3158.55,3308.86 3166.29,3304.82 3163.26,3295.09 3161.96,3288.47 3161.76,3287.42 3158.40,3289.19 3159.90,3297.12 3155.01,3300.16"/>
    <poly id="building_48" type="building" color="200,200,200" fill="true" layer="2" shape="3271.57,3190.38 3278.48,3198.86 3280.55,3196.31 3285.16,3200.16 3294.72,3192.04 3281.40,3182.00 3271.57,3190.38"/>
    <poly id="building_49" type="building" color="200,200,200" fill="true" layer="2" shape="3254.78,3205.37 3261.41,3215.88 3268.38,3211.31 3260.71,3203.35 3254.78,3205.37"/>
    <poly id="building_50" type="building" color="200,200,200" fill="true" layer="2" shape="3280.33,3434.71 3290.12,3430.93 3285.82,3416.34 3275.48,3425.49 3280.33,3434.71"/>
    <poly id="building_51" type="building" color="200,200,200" fill="true" layer="2" shape="3242.53,3444.64 3249.71,3451.26 3258.53,3439.69 3250.77,3434.03 3242.53,3444.64"/>
    <poly id="building_52" type="building" color="200,200,200" fill="true" layer="2" shape="3214.91,3432.88 3225.19,3441.84 3228.91,3438.38 3218.44,3428.64 3214.91,3432.88"/>
    <poly id="building_53" type="building" color="200,200,200" fill="true" layer="2" shape="3192.59,3450.96 3200.55,3458.56 3204.66,3454.71 3197.09,3449.05 3192.59,3450.96"/>
    <poly id="building_54" type="building" color="200,200,200" fill="true" layer="2" shape="3223.36,3419.75 3224.93,3418.21 3232.11,3424.25 3234.84,3422.13 3238.92,3426.81 3235.77,3431.83 3223.36,3419.75"/>
    <poly id="building_55" type="building" color="200,200,200" fill="true" layer="2" shape="3206.80,3367.81 3204.28,3368.83 3206.77,3372.66 3212.25,3370.77 3205.66,3360.47 3204.31,3363.11 3206.80,3367.81"/>
    <poly id="building_56" type="building" color="200,200,200" fill="true" layer="2" shape="3185.13,3359.62 3190.25,3368.31 3200.34,3360.73 3195.06,3352.93 3185.13,3359.62"/>
    <poly id="building_57" type="building" color="200,200,200" fill="true" layer="2" shape="3191.22,3353.64 3197.45,3348.84 3192.47,3339.12 3186.25,3343.35 3189.61,3348.94 3188.57,3350.25 3191.22,3353.64"/>
    <poly id="building_58" type="building" color="200,200,200" fill="true" layer="2" shape="3172.82,3369.98 3177.41,3365.17 3182.27,3369.00 3185.81,3371.52 3178.68,3378.09 3175.59,3374.25 3172.82,3369.98"/>
    <poly id="building_59" type="building" color="200,200,200" fill="true" layer="2" shape="3151.41,3366.79 3150.27,3359.44 3161.06,3357.01 3163.83,3364.80 3151.41,3366.79"/>
    <poly id="building_60" type="building" color="200,200,200" fill="true" layer="2" shape="3171.14,3351.33 3167.63,3343.98 3176.06,3341.24 3177.96,3347.26 3171.14,3351.33"/>
    <poly id="building_61" type="building" color="200,200,200" fill="true" layer="2" shape="3228.99,3332.12 3224.93,3320.06 3232.31,3318.49 3235.98,3326.14 3232.72,3327.59 3233.29,3330.24 3228.99,3332.12"/>
    <poly id="building_62" type="building" color="200,200,200" fill="true" layer="2" shape="3286.69,3282.38 3278.33,3257.04 3299.46,3250.64 3302.40,3252.82 3304.60,3250.02 3307.16,3251.06 3306.92,3249.01 3311.69,3247.76 3312.70,3249.81 3318.24,3248.18 3321.41,3257.65 3321.51,3263.01 3317.13,3264.39 3315.31,3266.94 3312.11,3266.29 3311.07,3267.56 3307.84,3269.08 3307.34,3267.15 3304.62,3269.06 3301.40,3270.06 3301.14,3272.62 3301.49,3277.73 3302.25,3280.68 3304.69,3281.20 3309.98,3279.94 3311.12,3282.13 3317.43,3281.01 3326.31,3277.99 3329.37,3285.66 3330.78,3285.16 3331.78,3289.64 3332.40,3295.14 3319.51,3300.82 3317.72,3299.53 3316.56,3299.78 3315.16,3295.81 3313.11,3296.58 3314.35,3303.10 3301.99,3306.99 3296.19,3308.11 3290.23,3291.98 3286.69,3282.38"/>
    <poly id="building_63" type="building" color="200,200,200" fill="true" layer="2" shape="3195.66,3319.79 3200.25,3329.02 3209.80,3322.42 3208.41,3316.40 3195.66,3319.79"/>
    <poly id="building_64" type="building" color="200,200,200" fill="true" layer="2" shape="3208.40,3443.40 3206.33,3445.05 3203.13,3442.36 3208.03,3438.93 3213.92,3444.19 3211.21,3446.48 3208.40,3443.40"/>
    <poly id="building_65" type="building" color="200,200,200" fill="true" layer="2" shape="3256.62,3419.00 3252.02,3413.10 3257.06,3407.76 3259.86,3413.65 3256.62,3419.00"/>
    <poly id="building_66" type="building" color="200,200,200" fill="true" layer="2" shape="2870.43,3737.76 2870.49,3726.90 2879.94,3725.78 2879.87,3738.99 2870.43,3737.76"/>
    <poly id="building_67" type="building" color="200,200,200" fill="true" layer="2" shape="2963.88,3835.70 2964.22,3824.54 2976.05,3821.67 2979.56,3829.32 2977.47,3832.54 2963.88,3835.70"/>
    <poly id="building_68" type="building" color="200,200,200" fill="true" layer="2" shape="2964.55,3874.73 2963.13,3863.87 2974.66,3862.46 2976.08,3873.62 2964.55,3874.73"/>
    <poly id="building_69" type="building" color="200,200,200" fill="true" layer="2" shape="2573.25,3730.00 2570.46,3716.65 2588.40,3709.06 2604.71,3705.90 2605.87,3716.42 2590.78,3722.82 2573.25,3730.00"/>
    <poly id="building_70" type="building" color="200,200,200" fill="true" layer="2" shape="2540.40,3674.66 2540.47,3661.21 2553.05,3661.03 2557.88,3664.90 2560.04,3666.83 2560.24,3674.52 2551.06,3674.48 2540.40,3674.66"/>
    <poly id="building_71" type="building" color="200,200,200" fill="true" layer="2" shape="2436.89,3675.65 2448.98,3674.85 2448.50,3656.84 2451.14,3646.56 2466.97,3646.37 2470.93,3657.53 2483.59,3657.88 2487.87,3664.48 2502.84,3662.84 2502.94,3643.69 2502.11,3636.83 2483.71,3633.88 2460.44,3629.75 2436.28,3627.91 2436.71,3654.21 2436.89,3675.65"/>
    <poly id="commercial_72" type="commercial" color="242,218,218" fill="true" layer="-1" shape="2710.20,3586.56 2709.41,3598.57 2709.12,3608.43 2728.23,3607.81 2732.13,3604.47 2730.48,3594.60 2729.31,3586.42 2728.61,3581.13 2718.68,3583.72 2710.20,3586.56"/>
    <poly id="building_73" type="building" color="200,200,200" fill="true" layer="2" shape="2529.08,3564.23 2528.64,3556.78 2528.42,3551.73 2537.13,3551.30 2538.06,3558.51 2538.51,3565.00 2529.08,3564.23"/>
    <poly id="building_74" type="building" color="200,200,200" fill="true" layer="2" shape="2537.99,3723.64 2538.01,3719.35 2538.03,3715.64 2549.54,3714.27 2562.22,3711.47 2563.89,3720.05 2552.96,3722.00 2546.04,3722.83 2537.99,3723.64"/>
    <poly id="building_75" type="building" color="200,200,200" fill="true" layer="2" shape="2355.66,3636.06 2367.31,3630.03 2358.72,3613.67 2347.07,3619.70 2355.66,3636.06"/>
    <poly id="building_76" type="building" color="200,200,200" fill="true" layer="2" shape="2510.93,3566.30 2510.50,3551.63 2525.19,3551.19 2525.62,3565.88 2510.93,3566.30"/>
    <poly id="building_77" type="building" color="200,200,200" fill="true" layer="2" shape="2495.96,3565.09 2496.02,3553.38 2508.67,3553.15 2508.89,3566.58 2495.96,3565.09"/>
    <poly id="building_78" type="building" color="200,200,200" fill="true" layer="2" shape="2573.56,3577.21 2574.79,3560.36 2583.72,3559.84 2583.05,3577.55 2573.56,3577.21"/>
    <poly id="building_79" type="building" color="200,200,200" fill="true" layer="2" shape="2650.96,3552.79 2652.17,3561.34 2661.95,3561.10 2676.05,3561.17 2675.81,3553.24 2662.98,3552.85 2650.96,3552.79"/>
    <poly id="building_80" type="building" color="200,200,200" fill="true" layer="2" shape="2761.12,3577.05 2758.90,3567.89 2755.60,3554.22 2772.45,3550.20 2775.58,3563.12 2778.67,3579.06 2763.68,3581.92 2761.12,3577.05"/>
    <poly id="residential_81" type="residential" color="220,220,220" fill="true" layer="-1" shape="2542.49,3698.86 2539.65,3691.41 2540.55,3683.70 2559.57,3679.51 2561.53,3686.95 2562.92,3696.67 2552.27,3698.33 2542.49,3698.86"/>
    <poly id="building_82" type="building" color="200,200,200" fill="true" layer="2" shape="2520.88,3671.78 2522.67,3657.21 2534.18,3657.27 2537.60,3663.30 2537.29,3667.01 2532.40,3667.55 2531.80,3672.69 2520.88,3671.78"/>
    <poly id="building_83" type="building" color="200,200,200" fill="true" layer="2" shape="2854.18,3525.08 2859.27,3518.20 2863.83,3521.54 2858.74,3528.41 2854.18,3525.08"/>
    <poly id="building_84" type="building" color="200,200,200" fill="true" layer="2" shape="3761.22,2757.66 3770.49,2743.18 3782.58,2749.47 3793.81,2758.25 3796.25,2770.30 3786.20,2775.22 3773.29,2766.86 3761.22,2757.66"/>
    <poly id="commercial_85" type="commercial" color="242,218,218" fill="true" layer="-1" shape="3014.00,3367.41 3022.88,3363.36 3037.40,3356.09 3047.47,3351.45 3052.20,3350.30 3056.27,3362.65 3063.90,3373.25 3069.43,3388.54 3074.09,3402.07 3079.96,3410.32 3081.68,3419.72 3084.20,3427.16 3085.47,3430.90 3095.76,3438.29 3103.09,3450.06 3105.70,3457.71 3113.64,3467.14 3114.19,3472.72 3107.38,3476.80 3096.72,3481.15 3084.29,3485.49 3071.57,3488.35 3066.55,3488.32 3059.54,3472.44 3052.80,3460.66 3045.48,3449.68 3043.36,3434.76 3035.01,3416.54 3026.52,3402.12 3023.02,3393.29 3018.93,3385.94 3017.20,3377.71 3014.00,3367.41"/>
    <poly id="commercial_86" type="commercial" color="242,218,218" fill="true" layer="-1" shape="2892.32,3470.69 2897.98,3462.20 2909.28,3448.46 2917.31,3438.82 2927.10,3430.07 2953.14,3413.19 2962.72,3400.31 2977.54,3389.82 2992.95,3380.21 3004.22,3372.94 3009.48,3383.24 2989.62,3394.59 2968.87,3410.03 2955.51,3422.29 2945.43,3429.28 2934.75,3436.86 2927.33,3444.45 2920.50,3449.69 2913.05,3461.69 2907.98,3469.30 2900.85,3478.94 2892.32,3470.69"/>
    <poly id="commercial_87" type="commercial" color="242,218,218" fill="true" layer="-1" shape="2848.16,3497.46 2864.47,3484.62 2867.78,3475.25 2879.68,3458.87 2859.28,3461.71 2843.60,3465.14 2825.54,3472.10 2817.84,3477.63 2805.09,3485.20 2800.02,3493.09 2791.16,3494.80 2796.12,3505.99 2801.69,3513.94 2809.33,3522.20 2821.17,3516.39 2833.03,3509.40 2842.22,3503.29 2848.16,3497.46"/>
    <poly id="building_88" type="building" color="200,200,200" fill="true" layer="2" shape="2297.06,3626.95 2295.07,3612.56 2309.84,3611.47 2315.74,3615.30 2324.61,3612.72 2329.83,3631.53 2317.40,3634.39 2314.80,3624.10 2297.06,3626.95"/>
    <poly id="residential_89" type="residential" color="220,220,220" fill="true" layer="-1" shape="2467.54,3585.83 2469.32,3563.42 2483.95,3563.50 2484.84,3553.54 2489.85,3553.16 2489.36,3566.44 2490.97,3579.31 2489.25,3588.43 2490.03,3597.98 2490.42,3603.80 2495.44,3603.00 2495.37,3615.44 2485.35,3615.81 2478.67,3613.70 2480.41,3602.50 2484.16,3602.11 2484.22,3592.14 2482.99,3585.50 2467.54,3585.83"/>
    <poly id="commercial_90" type="commercial" color="242,218,218" fill="true" layer="-1" shape="2922.68,3288.66 2920.95,3279.55 2918.04,3271.02 2913.94,3264.55 2911.32,3257.49 2910.18,3248.97 2907.58,3237.80 2905.56,3229.28 2913.07,3225.23 2910.84,3218.57 2925.66,3211.25 2930.14,3218.84 2933.64,3227.37 2939.18,3239.44 2943.57,3248.85 2947.95,3257.68 2952.34,3265.63 2955.25,3273.57 2956.42,3277.10 2951.68,3279.42 2944.28,3281.44 2938.37,3283.16 2928.89,3286.34 2922.68,3288.66"/>
    <poly id="building_91" type="building" color="200,200,200" fill="true" layer="2" shape="2922.66,3292.47 2929.46,3290.75 2937.16,3287.56 2943.67,3284.08 2958.18,3280.92 2960.22,3284.45 2960.78,3290.33 2956.34,3293.53 2947.44,3298.48 2943.00,3300.51 2936.79,3302.53 2932.05,3303.09 2924.36,3305.99 2924.10,3298.36 2922.66,3292.47"/>
    <poly id="commercial_92" type="commercial" color="242,218,218" fill="true" layer="-1" shape="2943.19,3321.64 2941.16,3313.41 2941.20,3306.95 2948.89,3303.47 2956.89,3300.00 2965.77,3295.93 2969.28,3302.99 2969.26,3308.27 2973.67,3311.82 2976.01,3317.11 2977.17,3320.65 2979.81,3325.94 2982.42,3332.71 2982.71,3335.64 2985.34,3339.18 2987.39,3343.30 2983.84,3344.74 2978.51,3346.77 2976.17,3342.36 2973.84,3336.48 2970.03,3328.53 2967.39,3327.06 2963.88,3319.69 2961.54,3315.86 2950.88,3319.62 2943.19,3321.64"/>
    <poly id="commercial_93" type="commercial" color="242,218,218" fill="true" layer="-1" shape="3009.49,3355.45 3006.86,3348.68 3004.24,3341.33 3001.01,3337.80 3001.35,3330.75 2997.53,3325.74 2995.79,3318.69 2989.34,3309.26 2987.91,3300.45 2982.01,3297.77 2979.71,3288.08 2974.43,3279.83 2970.06,3268.95 2963.59,3263.63 2981.65,3255.51 2986.37,3256.12 2988.99,3263.47 2991.32,3270.23 2995.15,3270.84 2995.11,3277.89 2998.35,3282.89 3002.15,3289.07 3007.02,3296.54 3007.67,3303.42 3012.54,3314.78 3018.22,3323.79 3020.22,3337.01 3024.02,3345.84 3018.08,3350.21 3009.49,3355.45"/>
    <poly id="building_94" type="building" color="200,200,200" fill="true" layer="2" shape="3015.91,3313.80 3011.52,3306.73 3021.58,3302.10 3023.61,3309.74 3015.91,3313.80"/>
    <poly id="commercial_95" type="commercial" color="242,218,218" fill="true" layer="-1" shape="3069.64,3378.37 3066.71,3372.78 3062.02,3365.99 3059.41,3357.76 3054.14,3348.64 3060.36,3344.27 3064.22,3341.65 3068.91,3349.59 3071.82,3357.24 3077.67,3367.83 3082.35,3377.85 3091.14,3389.92 3097.87,3402.29 3099.91,3408.76 3092.79,3414.30 3083.91,3418.07 3080.12,3407.77 3076.31,3401.29 3073.99,3395.12 3071.65,3388.36 3070.50,3384.24 3069.64,3378.37"/>
    <poly id="building_96" type="building" color="200,200,200" fill="true" layer="2" shape="2907.46,3427.25 2904.83,3423.29 2900.74,3415.93 2896.07,3406.22 2887.49,3408.24 2870.63,3410.19 2869.50,3401.97 2882.23,3395.87 2892.29,3393.87 2893.15,3398.57 2907.95,3394.25 2911.78,3393.97 2915.88,3401.62 2918.17,3414.85 2916.45,3419.04 2913.23,3424.09 2907.46,3427.25"/>
    <poly id="building_97" type="building" color="200,200,200" fill="true" layer="2" shape="2919.17,3604.67 2915.83,3592.43 2922.12,3590.58 2932.96,3588.09 2936.11,3601.61 2919.17,3604.67"/>
    <poly id="building_98" type="building" color="200,200,200" fill="true" layer="2" shape="2939.13,3603.87 2934.63,3590.58 2944.14,3586.79 2947.24,3599.02 2939.13,3603.87"/>
    <poly id="building_99" type="building" color="200,200,200" fill="true" layer="2" shape="2951.47,3596.60 2962.72,3593.87 2964.51,3588.29 2959.30,3578.14 2944.16,3582.60 2947.98,3592.39 2951.47,3596.60"/>
    <poly id="building_100" type="building" color="200,200,200" fill="true" layer="2" shape="2962.45,3579.20 2966.25,3589.70 2975.06,3587.30 2970.56,3573.67 2962.45,3579.20"/>
    <poly id="building_101" type="building" color="200,200,200" fill="true" layer="2" shape="2977.89,3583.12 2972.69,3570.54 2982.91,3564.65 2987.09,3570.26 2988.80,3579.34 2991.55,3589.83 2983.12,3592.23 2977.89,3583.12"/>
    <poly id="building_102" type="building" color="200,200,200" fill="true" layer="2" shape="2993.67,3586.70 3002.48,3584.65 2994.12,3569.60 2990.23,3573.77 2993.67,3586.70"/>
    <poly id="building_103" type="building" color="200,200,200" fill="true" layer="2" shape="3000.06,3575.91 2996.25,3566.81 2992.41,3561.21 3001.56,3557.07 3005.40,3563.02 3007.79,3575.26 3000.06,3575.91"/>
    <poly id="building_104" type="building" color="200,200,200" fill="true" layer="2" shape="3011.32,3571.44 3004.37,3556.73 3011.78,3552.59 3016.65,3561.34 3019.06,3571.48 3011.32,3571.44"/>
    <poly id="residential_105" type="residential" color="220,220,220" fill="true" layer="-1" shape="3021.88,3569.39 3019.47,3560.30 3015.99,3552.61 3023.39,3549.85 3032.89,3546.41 3043.10,3543.33 3055.76,3539.55 3066.33,3534.02 3074.77,3534.42 3081.10,3533.40 3084.57,3540.74 3086.66,3543.55 3088.38,3550.89 3091.16,3556.49 3091.49,3562.08 3095.31,3569.43 3102.30,3577.49 3109.25,3592.89 3104.66,3596.70 3099.76,3591.45 3090.28,3591.04 3082.19,3591.70 3080.48,3582.62 3082.96,3579.83 3089.64,3577.42 3087.93,3569.73 3084.79,3565.54 3079.85,3569.00 3076.70,3567.23 3066.15,3569.62 3061.91,3572.74 3053.12,3575.49 3056.24,3581.79 3056.93,3585.64 3062.21,3583.56 3068.19,3582.20 3071.01,3581.52 3070.97,3587.80 3067.09,3590.22 3060.75,3595.08 3057.23,3595.06 3053.75,3589.10 3046.72,3589.42 3046.39,3585.58 3043.60,3581.03 3039.75,3578.91 3037.31,3575.41 3030.27,3577.11 3028.54,3570.83 3024.31,3573.24 3021.88,3569.39"/>
    <poly id="building_106" type="building" color="200,200,200" fill="true" layer="2" shape="2907.61,3585.89 2905.88,3578.90 2904.52,3571.22 2911.91,3567.08 2920.72,3563.98 2923.14,3571.32 2915.74,3573.72 2918.74,3585.46 2912.52,3584.88 2907.61,3585.89"/>
    <poly id="residential_107" type="residential" color="220,220,220" fill="true" layer="-1" shape="2924.87,3576.56 2930.15,3573.80 2933.66,3575.21 2943.86,3572.12 2948.44,3571.11 2958.27,3570.76 2964.28,3565.60 2970.26,3562.49 2978.37,3559.04 2984.71,3555.59 2994.56,3551.80 3001.96,3548.00 3010.06,3544.90 3017.12,3540.39 3025.56,3536.95 3033.31,3533.50 3038.94,3531.43 3045.62,3529.72 3050.92,3526.26 3062.89,3520.74 3070.65,3514.85 3069.27,3509.95 3054.50,3512.67 3041.13,3517.13 3037.96,3519.22 3035.82,3523.74 3027.74,3525.09 3020.71,3525.06 3019.32,3521.91 3015.46,3519.80 3010.19,3521.52 3007.36,3525.34 3007.67,3530.57 3006.95,3536.16 2998.85,3539.26 2992.50,3543.40 2985.12,3544.07 2978.78,3546.47 2975.96,3549.96 2967.86,3552.00 2960.47,3553.71 2959.46,3546.37 2959.49,3541.84 2951.03,3544.59 2952.42,3550.17 2947.48,3552.25 2944.31,3553.63 2942.52,3560.26 2939.69,3564.08 2931.95,3566.47 2924.93,3565.74 2924.87,3576.56"/>
    <poly id="building_108" type="building" color="200,200,200" fill="true" layer="2" shape="2917.57,3561.86 2923.18,3563.29 2923.55,3559.11 2933.41,3555.32 2929.92,3551.46 2928.19,3547.26 2927.85,3544.12 2922.57,3544.09 2919.74,3548.96 2915.17,3548.94 2912.34,3552.76 2915.13,3556.97 2917.57,3561.86"/>
    <poly id="building_109" type="building" color="200,200,200" fill="true" layer="2" shape="2930.12,3647.10 2936.10,3645.04 2943.15,3641.93 2953.36,3636.40 2950.25,3628.01 2944.63,3627.63 2935.48,3630.02 2929.85,3632.08 2926.66,3636.96 2930.12,3647.10"/>
    <poly id="residential_110" type="residential" color="220,220,220" fill="true" layer="-1" shape="2935.35,3721.12 2931.88,3712.38 2933.32,3706.45 2932.65,3701.22 2926.71,3693.85 2916.87,3694.50 2911.60,3694.82 2910.58,3688.18 2913.76,3684.71 2913.80,3678.08 2911.70,3674.58 2922.26,3671.84 2927.20,3668.72 2930.33,3675.02 2931.68,3683.76 2933.77,3687.61 2936.55,3694.95 2940.36,3705.10 2942.09,3708.94 2944.16,3716.99 2935.35,3721.12"/>
    <poly id="building_111" type="building" color="200,200,200" fill="true" layer="2" shape="2934.94,3732.64 2940.23,3730.57 2947.27,3728.17 2946.94,3722.93 2945.90,3719.09 2938.86,3722.53 2931.82,3723.90 2933.21,3727.75 2934.94,3732.64"/>
    <poly id="building_112" type="building" color="200,200,200" fill="true" layer="2" shape="2606.16,3852.04 2602.34,3842.59 2597.07,3841.87 2590.40,3841.14 2590.43,3835.21 2595.71,3835.24 2600.99,3832.47 2604.51,3830.74 2606.95,3833.89 2609.77,3833.91 2611.50,3837.41 2614.98,3845.11 2611.45,3847.89 2608.98,3849.96 2606.16,3852.04"/>
    <poly id="residential_113" type="residential" color="220,220,220" fill="true" layer="-1" shape="2744.95,3829.57 2746.67,3820.44 2759.23,3815.12 2775.97,3810.64 2780.08,3822.69 2780.02,3833.07 2779.57,3840.13 2781.62,3847.60 2781.60,3851.34 2780.72,3860.05 2780.69,3866.69 2780.66,3871.68 2776.06,3873.32 2769.78,3874.52 2764.78,3873.67 2763.14,3866.60 2764.86,3858.31 2766.55,3852.92 2767.83,3847.95 2769.12,3841.73 2762.00,3844.60 2756.99,3844.16 2757.85,3839.59 2753.69,3835.01 2748.69,3832.50 2744.95,3829.57"/>
    <poly id="residential_114" type="residential" color="220,220,220" fill="true" layer="-1" shape="2657.45,3862.32 2663.32,3857.36 2670.03,3854.08 2676.72,3852.45 2686.76,3849.19 2690.50,3854.60 2692.98,3858.77 2700.09,3857.97 2707.20,3856.35 2710.51,3863.01 2719.28,3863.88 2720.50,3870.95 2724.23,3876.36 2729.63,3880.96 2732.12,3884.70 2732.94,3888.45 2725.83,3890.07 2719.13,3891.69 2713.29,3891.66 2705.76,3891.62 2699.09,3889.93 2692.41,3886.99 2687.42,3883.23 2684.94,3879.90 2679.91,3880.28 2674.93,3874.45 2670.78,3869.45 2662.85,3867.75 2657.45,3862.32"/>
    <poly id="residential_115" type="residential" color="220,220,220" fill="true" layer="-1" shape="2382.85,3799.44 2379.13,3791.13 2376.67,3782.82 2387.95,3783.29 2396.76,3774.61 2400.57,3766.34 2411.87,3763.07 2425.69,3756.92 2434.07,3751.15 2442.46,3746.21 2452.49,3743.78 2467.98,3739.71 2475.92,3739.75 2490.97,3737.75 2508.12,3732.44 2514.39,3733.30 2522.73,3735.84 2532.76,3736.31 2538.14,3745.88 2528.10,3747.91 2513.90,3746.17 2501.36,3746.52 2490.92,3747.72 2480.03,3751.81 2475.02,3751.78 2465.82,3752.14 2453.27,3755.82 2453.25,3759.56 2459.45,3771.20 2451.52,3772.41 2446.07,3774.46 2438.96,3776.91 2431.42,3780.19 2426.40,3781.00 2418.02,3784.27 2411.33,3786.73 2406.77,3778.82 2396.30,3782.08 2399.60,3792.06 2382.85,3799.44"/>
    <poly id="residential_116" type="residential" color="220,220,220" fill="true" layer="-1" shape="2353.77,3765.67 2353.01,3753.63 2342.54,3755.66 2338.43,3744.01 2346.80,3741.97 2356.83,3741.20 2366.45,3737.52 2376.07,3737.57 2378.21,3750.53 2377.63,3759.57 2365.50,3762.00 2353.77,3765.67"/>