<?xml version="1.0" encoding="UTF-8"?>

<!-- generated on 2026-03-16T07:20:12.241577+05:30 by Eclipse SUMO netconvert 1.25.0
<netconvertConfiguration xmlns:xsi="http://www.w3.org/2001/XMLSchema-instance" xsi:noNamespaceSchemaLocation="http://sumo.dlr.de/xsd/netconvertConfiguration.xsd">

    <input>
        <osm-files value="map.osm"/>
    </input>

    <output>
        <output-file value="area.net.xml"/>
    </output>

    <projection>
        <proj.utm value="true"/>
    </projection>

    <processing>
        <geometry.remove value="true"/>
        <roundabouts.guess value="true"/>
    </processing>

    <ramp_guessing>
        <ramps.guess value="true"/>
    </ramp_guessing>

    <junctions>
        <no-turnarounds value="true"/>
    </junctions>

</netconvertConfiguration>
-->

<net version="1.20" junctionCornerDetail="5" limitTurnSpeed="5.50" xmlns:xsi="http://www.w3.org/2001/XMLSchema-instance" xsi:noNamespaceSchemaLocation="http://sumo.dlr.de/xsd/net_file.xsd">

    <location netOffset="-722225.39,-928537.71" convBoundary="0.00,0.00,4710.75,5152.29" origBoundary="77.018409,8.394972,77.064827,8.453314" projParameter="+proj=utm +zone=43 +ellps=WGS84 +datum=WGS84 +units=m +no_defs"/>

    <type id="highway.living_street" priority="2" numLanes="1" speed="2.78" disallow="tram rail_urban rail rail_electric rail_fast ship container cable_car subway aircraft wheelchair scooter drone" oneway="0"/>
    <type id="highway.primary" priority="12" numLanes="2" speed="27.78" disallow="tram rail_urban rail rail_electric rail_fast ship container cable_car subway aircraft wheelchair scooter drone" oneway="0"/>
    <type id="highway.residential" priority="3" numLanes="1" speed="13.89" disallow="tram rail_urban rail rail_electric rail_fast ship container cable_car subway aircraft wheelchair scooter drone" oneway="0"/>
    <type id="highway.secondary" priority="11" numLanes="1" speed="27.78" disallow="tram rail_urban rail rail_electric rail_fast ship container cable_car subway aircraft wheelchair scooter drone" oneway="0"/>
    <type id="highway.service" priority="1" numLanes="1" speed="5.56" allow="pedestrian delivery bicycle" oneway="0"/>
    <type id="highway.tertiary" priority="10" numLanes="1" speed="22.22" disallow="tram rail_urban rail rail_electric rail_fast ship container cable_car subway aircraft wheelchair scooter drone" oneway="0"/>
    <type id="highway.unclassified" priority="4" numLanes="1" speed="13.89" disallow="tram rail_urban rail rail_electric rail_fast ship container cable_car subway aircraft wheelchair scooter drone" oneway="0"/>

    <edge id=":10083445890_0" function="internal">
        <lane id=":10083445890_0_0" index="0" disallow="tram rail_urban rail rail_electric rail_fast ship container cable_car subway aircraft wheelchair scooter drone" speed="27.78" length="9.75" shape="2574.25,3542.39 2564.41,3542.30"/>
        <lane id=":10083445890_0_1" index="1" disallow="tram rail_urban rail rail_electric rail_fast ship container cable_car subway aircraft wheelchair scooter drone" speed="27.78" length="9.75" shape="2574.22,3539.19 2564.47,3539.10"/>
        <lane id=":10083445890_0_2" index="2" disallow="tram rail_urban rail rail_electric rail_fast ship container cable_car subway aircraft wheelchair scooter drone" speed="27.78" length="9.75" shape="2574.19,3535.99 2564.53,3535.90"/>
    </edge>
    <edge id=":10083445890_3" function="internal">
        <lane id=":10083445890_3_0" index="0" disallow="tram rail_urban rail rail_electric rail_fast ship container cable_car subway aircraft wheelchair scooter drone" speed="6.87" length="8.38" shape="2574.19,3535.99 2571.49,3535.79 2569.43,3535.14 2568.02,3534.04 2567.26,3532.49"/>
    </edge>
    <edge id=":10083445890_4" function="internal">
        <lane id=":10083445890_4_0" index="0" disallow="tram rail_urban rail rail_electric rail_fast ship container cable_car subway aircraft wheelchair scooter drone" speed="6.70" length="11.57" shape="2570.36,3531.72 2570.69,3535.01 2569.82,3537.33 2567.75,3538.70 2564.47,3539.10"/>
        <lane id=":10083445890_4_1" index="1" disallow="tram rail_urban rail rail_electric rail_fast ship container cable_car subway aircraft wheelchair scooter drone" speed="5.87" length="8.57" shape="2570.36,3531.72 2570.40,3533.60 2569.44,3534.92 2567.48,3535.69 2564.53,3535.90"/>
    </edge>
    <edge id=":10083445892_0" function="internal">
        <lane id=":10083445892_0_0" index="0" disallow="tram rail_urban rail rail_electric rail_fast ship container cable_car subway aircraft wheelchair scooter drone" speed="27.78" length="9.73" shape="2325.95,3569.19 2316.79,3572.17"/>
        <lane id=":10083445892_0_1" index="1" disallow="tram rail_urban rail rail_electric rail_fast ship container cable_car subway aircraft wheelchair scooter drone" speed="27.78" length="9.73" shape="2325.03,3566.13 2315.78,3569.14"/>
        <lane id=":10083445892_0_2" index="2" disallow="tram rail_urban rail rail_electric rail_fast ship container cable_car subway aircraft wheelchair scooter drone" speed="27.78" length="9.73" shape="2324.11,3563.06 2314.76,3566.11"/>
    </edge>
    <edge id=":10083445892_3" function="internal">
        <lane id=":10083445892_3_0" index="0" disallow="tram rail_urban rail rail_electric rail_fast ship container cable_car subway aircraft wheelchair scooter drone" speed="7.58" length="8.73" shape="2324.11,3563.06 2321.43,3563.64 2319.18,3563.65 2317.34,3563.08 2315.93,3561.93"/>
    </edge>
    <edge id=":10083445892_4" function="internal">
        <lane id=":10083445892_4_0" index="0" disallow="tram rail_urban rail rail_electric rail_fast ship container cable_car subway aircraft wheelchair scooter drone" speed="6.67" length="12.26" shape="2318.39,3559.88 2320.28,3562.91 2320.47,3565.47 2318.97,3567.54 2315.78,3569.14"/>
        <lane id=":10083445892_4_1" index="1" disallow="tram rail_urban rail rail_electric rail_fast ship container cable_car subway aircraft wheelchair scooter drone" speed="5.81" length="8.99" shape="2318.39,3559.88 2319.39,3561.74 2319.11,3563.39 2317.57,3564.85 2314.76,3566.11"/>
    </edge>
    <edge id=":10083445893_0" function="internal">
        <lane id=":10083445893_0_0" index="0" disallow="tram rail_urban rail rail_electric rail_fast ship container cable_car subway aircraft wheelchair scooter drone" speed="27.78" length="9.39" shape="2122.93,3652.06 2114.42,3655.97"/>
        <lane id=":10083445893_0_1" index="1" disallow="tram rail_urban rail rail_electric rail_fast ship container cable_car subway aircraft wheelchair scooter drone" speed="27.78" length="9.39" shape="2121.60,3649.14 2113.08,3653.07"/>
        <lane id=":10083445893_0_2" index="2" disallow="tram rail_urban rail rail_electric rail_fast ship container cable_car subway aircraft wheelchair scooter drone" speed="27.78" length="9.39" shape="2120.28,3646.23 2111.73,3650.17"/>
    </edge>
    <edge id=":10083445893_3" function="internal">
        <lane id=":10083445893_3_0" index="0" disallow="tram rail_urban rail rail_electric rail_fast ship container cable_car subway aircraft wheelchair scooter drone" speed="6.30" length="7.88" shape="2120.28,3646.23 2117.72,3647.18 2115.66,3647.46 2114.12,3647.06 2113.08,3646.00"/>
    </edge>
    <edge id=":10083445893_4" function="internal">
        <lane id=":10083445893_4_0" index="0" disallow="tram rail_urban rail rail_electric rail_fast ship container cable_car subway aircraft wheelchair scooter drone" speed="6.80" length="10.53" shape="2115.88,3644.44 2116.92,3647.16 2116.80,3649.51 2115.52,3651.48 2113.08,3653.07"/>
        <lane id=":10083445893_4_1" index="1" disallow="tram rail_urban rail rail_electric rail_fast ship container cable_car subway aircraft wheelchair scooter drone" speed="6.01" length="7.97" shape="2115.88,3644.44 2116.25,3645.93 2115.68,3647.38 2114.18,3648.80 2111.73,3650.17"/>
    </edge>
    <edge id=":10083503848_0" function="internal">
        <lane id=":10083503848_0_0" index="0" disallow="tram rail_urban rail rail_electric rail_fast ship container cable_car subway aircraft wheelchair scooter drone" speed="5.76" length="6.61" shape="2855.62,3502.29 2854.66,3501.59 2853.35,3501.52 2851.69,3502.08 2849.67,3503.29"/>
    </edge>
    <edge id=":10083503848_1" function="internal">
        <lane id=":10083503848_1_0" index="0" disallow="tram rail_urban rail rail_electric rail_fast ship container cable_car subway aircraft wheelchair scooter drone" speed="13.89" length="16.81" shape="2855.62,3502.29 2853.33,3498.98 2851.09,3495.23 2849.00,3491.38 2847.17,3487.78"/>
    </edge>
    <edge id=":10083503848_2" function="internal">
        <lane id=":10083503848_2_0" index="0" disallow="tram rail_urban rail rail_electric rail_fast ship container cable_car subway aircraft wheelchair scooter drone" speed="7.87" length="10.73" shape="2861.87,3490.75 2859.60,3494.11 2858.23,3496.82 2857.75,3498.90 2858.17,3500.35"/>
    </edge>
    <edge id=":10083503848_3" function="internal">
        <lane id=":10083503848_3_0" index="0" disallow="tram rail_urban rail rail_electric rail_fast ship container cable_car subway aircraft wheelchair scooter drone" speed="27.78" length="16.59" shape="2861.87,3490.75 2858.78,3494.98 2856.52,3497.79 2853.88,3500.22 2849.67,3503.29"/>
        <lane id=":10083503848_3_1" index="1" disallow="tram rail_urban rail rail_electric rail_fast ship container cable_car subway aircraft wheelchair scooter drone" speed="27.78" length="16.59" shape="2859.30,3488.85 2856.40,3492.83 2854.27,3495.48 2851.80,3497.77 2847.85,3500.66"/>
        <lane id=":10083503848_3_2" index="2" disallow="tram rail_urban rail rail_electric rail_fast ship container cable_car subway aircraft wheelchair scooter drone" speed="27.78" length="16.59" shape="2856.72,3486.95 2854.01,3490.67 2852.03,3493.16 2849.72,3495.32 2846.02,3498.02"/>
    </edge>
    <edge id=":10083503848_6" function="internal">
        <lane id=":10083503848_6_0" index="0" disallow="tram rail_urban rail rail_electric rail_fast ship container cable_car subway aircraft wheelchair scooter drone" speed="6.58" length="12.63" shape="2856.72,3486.95 2853.89,3490.02 2851.36,3491.19 2849.12,3490.44 2847.17,3487.78"/>
    </edge>
    <edge id=":10083503848_7" function="internal">
        <lane id=":10083503848_7_0" index="0" disallow="tram rail_urban rail rail_electric rail_fast ship container cable_car subway aircraft wheelchair scooter drone" speed="13.89" length="16.20" shape="2850.04,3486.36 2851.82,3489.88 2853.80,3493.54 2855.93,3497.12 2858.17,3500.35"/>
    </edge>
    <edge id=":10083503848_8" function="internal">
        <lane id=":10083503848_8_0" index="0" disallow="tram rail_urban rail rail_electric rail_fast ship container cable_car subway aircraft wheelchair scooter drone" speed="8.30" length="13.64" shape="2850.04,3486.36 2851.02,3489.57 2850.68,3492.58 2849.01,3495.40 2846.02,3498.02"/>
    </edge>
    <edge id=":10255288382_0" function="internal">
        <lane id=":10255288382_0_0" index="0" disallow="tram rail_urban rail rail_electric rail_fast ship container cable_car subway aircraft wheelchair scooter drone" speed="9.47" length="14.48" shape="2996.51,3893.00 2994.97,3888.74 2992.98,3885.60 2990.52,3883.57 2987.61,3882.67"/>
    </edge>
    <edge id=":10255288382_1" function="internal">
        <lane id=":10255288382_1_0" index="0" disallow="tram rail_urban rail rail_electric rail_fast ship container cable_car subway aircraft wheelchair scooter drone" speed="10.87" length="6.20" shape="2996.51,3893.00 2995.29,3886.92"/>
    </edge>
    <edge id=":10255288382_6" function="internal">
        <lane id=":10255288382_6_0" index="0" disallow="tram rail_urban rail rail_electric rail_fast ship container cable_car subway aircraft wheelchair scooter drone" speed="10.87" length="12.56" shape="2995.29,3886.92 2995.22,3881.95 2996.31,3878.07 2998.55,3875.30"/>
    </edge>
    <edge id=":10255288382_2" function="internal">
        <lane id=":10255288382_2_0" index="0" disallow="tram rail_urban rail rail_electric rail_fast ship container cable_car subway aircraft wheelchair scooter drone" speed="8.42" length="10.96" shape="3000.53,3877.82 2998.91,3879.62 2998.02,3881.91 2997.87,3884.68 2998.45,3887.94"/>
    </edge>
    <edge id=":10255288382_3" function="internal">
        <lane id=":10255288382_3_0" index="0" disallow="tram rail_urban rail rail_electric rail_fast ship container cable_car subway aircraft wheelchair scooter drone" speed="12.48" length="14.16" shape="3000.53,3877.82 2997.55,3879.96 2994.46,3881.61 2991.17,3882.58 2987.61,3882.67"/>
    </edge>
    <edge id=":10255288382_4" function="internal">
        <lane id=":10255288382_4_0" index="0" disallow="tram rail_urban rail rail_electric rail_fast ship container cable_car subway aircraft wheelchair scooter drone" speed="11.42" length="11.80" shape="2987.96,3879.49 2991.16,3879.50 2993.64,3878.76 2995.93,3877.34 2998.55,3875.30"/>
    </edge>
    <edge id=":10255288382_5" function="internal">
        <lane id=":10255288382_5_0" index="0" disallow="tram rail_urban rail rail_electric rail_fast ship container cable_car subway aircraft wheelchair scooter drone" speed="9.44" length="14.39" shape="2987.96,3879.49 2991.78,3880.37 2994.81,3882.07 2997.03,3884.59 2998.45,3887.94"/>
    </edge>
    <edge id=":10255288391_0" function="internal">
        <lane id=":10255288391_0_0" index="0" disallow="tram rail_urban rail rail_electric rail_fast ship container cable_car subway aircraft wheelchair scooter drone" speed="7.83" length="10.63" shape="3185.74,3776.70 3184.38,3774.68 3182.41,3773.37 3179.83,3772.78 3176.65,3772.91"/>
    </edge>
    <edge id=":10255288391_1" function="internal">
        <lane id=":10255288391_1_0" index="0" disallow="tram rail_urban rail rail_electric rail_fast ship container cable_car subway aircraft wheelchair scooter drone" speed="13.89" length="14.66" shape="3185.74,3776.70 3179.78,3763.30"/>
    </edge>
    <edge id=":10255288391_2" function="internal">
        <lane id=":10255288391_2_0" index="0" disallow="tram rail_urban rail rail_electric rail_fast ship container cable_car subway aircraft wheelchair scooter drone" speed="13.89" length="14.66" shape="3182.71,3762.00 3188.66,3775.40"/>
    </edge>
    <edge id=":10255288391_3" function="internal">
        <lane id=":10255288391_3_0" index="0" disallow="tram rail_urban rail rail_electric rail_fast ship container cable_car subway aircraft wheelchair scooter drone" speed="7.59" length="4.41" shape="3182.71,3762.00 3183.91,3766.24"/>
    </edge>
    <edge id=":10255288391_6" function="internal">
        <lane id=":10255288391_6_0" index="0" disallow="tram rail_urban rail rail_electric rail_fast ship container cable_car subway aircraft wheelchair scooter drone" speed="7.59" length="10.98" shape="3183.91,3766.24 3183.30,3769.47 3180.88,3771.69 3176.65,3772.91"/>
    </edge>
    <edge id=":10255288391_4" function="internal">
        <lane id=":10255288391_4_0" index="0" disallow="tram rail_urban rail rail_electric rail_fast ship container cable_car subway aircraft wheelchair scooter drone" speed="5.99" length="9.08" shape="3176.21,3769.74 3178.70,3769.02 3180.13,3767.71 3180.49,3765.80 3179.78,3763.30"/>
    </edge>
    <edge id=":10255288391_5" function="internal">
        <lane id=":10255288391_5_0" index="0" disallow="tram rail_urban rail rail_electric rail_fast ship container cable_car subway aircraft wheelchair scooter drone" speed="9.14" length="14.79" shape="3176.21,3769.74 3180.50,3769.61 3184.00,3770.50 3186.73,3772.43 3188.66,3775.40"/>
    </edge>
    <edge id=":10273261798_0" function="internal">
        <lane id=":10273261798_0_0" index="0" disallow="tram rail_urban rail rail_electric rail_fast ship container cable_car subway aircraft wheelchair scooter drone" speed="6.85" length="10.23" shape="2677.25,3556.71 2677.60,3553.92 2678.77,3551.93 2680.74,3550.73 2683.51,3550.33"/>
        <lane id=":10273261798_0_1" index="1" disallow="tram rail_urban rail rail_electric rail_fast ship container cable_car subway aircraft wheelchair scooter drone" speed="6.07" length="7.79" shape="2677.25,3556.71 2677.62,3555.32 2678.79,3554.33 2680.76,3553.73 2683.52,3553.53"/>
    </edge>
    <edge id=":10273261798_2" function="internal">
        <lane id=":10273261798_2_0" index="0" disallow="tram rail_urban rail rail_electric rail_fast ship container cable_car subway aircraft wheelchair scooter drone" speed="27.78" length="9.39" shape="2674.12,3547.14 2683.51,3547.13"/>
        <lane id=":10273261798_2_1" index="1" disallow="tram rail_urban rail rail_electric rail_fast ship container cable_car subway aircraft wheelchair scooter drone" speed="27.78" length="9.39" shape="2674.12,3550.34 2683.51,3550.33"/>
        <lane id=":10273261798_2_2" index="2" disallow="tram rail_urban rail rail_electric rail_fast ship container cable_car subway aircraft wheelchair scooter drone" speed="27.78" length="9.39" shape="2674.12,3553.54 2683.52,3553.53"/>
    </edge>
    <edge id=":10273261798_5" function="internal">
        <lane id=":10273261798_5_0" index="0" disallow="tram rail_urban rail rail_electric rail_fast ship container cable_car subway aircraft wheelchair scooter drone" speed="6.12" length="7.78" shape="2674.12,3553.54 2676.87,3553.73 2678.84,3554.32 2680.03,3555.29 2680.45,3556.66"/>
    </edge>
    <edge id=":10277277660_0" function="internal">
        <lane id=":10277277660_0_0" index="0" disallow="tram rail_urban rail rail_electric rail_fast ship container cable_car subway aircraft wheelchair scooter drone" speed="27.78" length="9.47" shape="2366.31,3557.07 2357.24,3559.80"/>
        <lane id=":10277277660_0_1" index="1" disallow="tram rail_urban rail rail_electric rail_fast ship container cable_car subway aircraft wheelchair scooter drone" speed="27.78" length="9.47" shape="2365.39,3554.01 2356.32,3556.73"/>
        <lane id=":10277277660_0_2" index="2" disallow="tram rail_urban rail rail_electric rail_fast ship container cable_car subway aircraft wheelchair scooter drone" speed="27.78" length="9.47" shape="2364.47,3550.94 2355.40,3553.67"/>
    </edge>
    <edge id=":10277277660_3" function="internal">
        <lane id=":10277277660_3_0" index="0" disallow="tram rail_urban rail rail_electric rail_fast ship container cable_car subway aircraft wheelchair scooter drone" speed="5.94" length="8.20" shape="2364.47,3550.94 2361.67,3551.54 2359.59,3551.42 2358.24,3550.58 2357.61,3549.04"/>
    </edge>
    <edge id=":10277277660_4" function="internal">
        <lane id=":10277277660_4_0" index="0" disallow="tram rail_urban rail rail_electric rail_fast ship container cable_car subway aircraft wheelchair scooter drone" speed="7.29" length="10.27" shape="2360.77,3548.58 2360.85,3551.54 2360.13,3553.89 2358.62,3555.62 2356.32,3556.73"/>
        <lane id=":10277277660_4_1" index="1" disallow="tram rail_urban rail rail_electric rail_fast ship container cable_car subway aircraft wheelchair scooter drone" speed="6.53" length="8.05" shape="2360.77,3548.58 2360.62,3550.15 2359.67,3551.52 2357.93,3552.69 2355.40,3553.67"/>
    </edge>
    <edge id=":10277277666_0" function="internal">
        <lane id=":10277277666_0_0" index="0" allow="pedestrian delivery bicycle" speed="5.04" length="5.01" shape="2356.93,3494.18 2355.56,3494.31 2354.57,3494.85 2353.95,3495.80 2353.70,3497.15"/>
    </edge>
    <edge id=":10277277666_1" function="internal">
        <lane id=":10277277666_1_0" index="0" allow="pedestrian delivery bicycle" speed="6.87" length="10.16" shape="2356.93,3494.18 2354.19,3493.67 2352.27,3492.40 2351.16,3490.39 2350.88,3487.62"/>
    </edge>
    <edge id=":10277277666_2" function="internal">
        <lane id=":10277277666_2_0" index="0" allow="pedestrian delivery bicycle" speed="5.06" length="5.02" shape="2354.08,3487.75 2354.22,3489.11 2354.76,3490.11 2355.72,3490.73 2357.07,3490.99"/>
    </edge>
    <edge id=":10277277666_3" function="internal">
        <lane id=":10277277666_3_0" index="0" disallow="tram rail_urban rail rail_electric rail_fast ship container cable_car subway aircraft wheelchair scooter drone" speed="13.89" length="9.40" shape="2354.08,3487.75 2353.70,3497.15"/>
    </edge>
    <edge id=":10277277666_4" function="internal">
        <lane id=":10277277666_4_0" index="0" disallow="tram rail_urban rail rail_electric rail_fast ship container cable_car subway aircraft wheelchair scooter drone" speed="13.89" length="9.40" shape="2350.50,3497.02 2350.88,3487.62"/>
    </edge>
    <edge id=":10277277666_5" function="internal">
        <lane id=":10277277666_5_0" index="0" allow="pedestrian delivery bicycle" speed="6.86" length="3.27" shape="2350.50,3497.02 2351.01,3494.27 2351.27,3493.87"/>
    </edge>
    <edge id=":10277277666_6" function="internal">
        <lane id=":10277277666_6_0" index="0" allow="pedestrian delivery bicycle" speed="6.86" length="6.91" shape="2351.27,3493.87 2352.27,3492.35 2354.29,3491.25 2357.07,3490.99"/>
    </edge>
    <edge id=":10617636419_0" function="internal">
        <lane id=":10617636419_0_0" index="0" disallow="tram rail_urban rail rail_electric rail_fast ship container cable_car subway aircraft wheelchair scooter drone" speed="13.89" length="14.56" shape="2196.35,2830.47 2181.86,2829.11"/>
    </edge>
    <edge id=":10617636419_1" function="internal">
        <lane id=":10617636419_1_0" index="0" disallow="tram rail_urban rail rail_electric rail_fast ship container cable_car subway aircraft wheelchair scooter drone" speed="8.72" length="3.83" shape="2196.35,2830.47 2192.85,2829.61 2192.67,2829.48"/>
    </edge>
    <edge id=":10617636419_6" function="internal">
        <lane id=":10617636419_6_0" index="0" disallow="tram rail_urban rail rail_electric rail_fast ship container cable_car subway aircraft wheelchair scooter drone" speed="8.72" length="10.74" shape="2192.67,2829.48 2190.20,2827.67 2188.41,2824.67 2187.48,2820.59"/>
    </edge>
    <edge id=":10617636419_2" function="internal">
        <lane id=":10617636419_2_0" index="0" disallow="tram rail_urban rail rail_electric rail_fast ship container cable_car subway aircraft wheelchair scooter drone" speed="7.37" length="10.14" shape="2190.67,2820.25 2191.31,2823.16 2192.52,2825.31 2194.31,2826.68 2196.66,2827.29"/>
    </edge>
    <edge id=":10617636419_3" function="internal">
        <lane id=":10617636419_3_0" index="0" disallow="tram rail_urban rail rail_electric rail_fast ship container cable_car subway aircraft wheelchair scooter drone" speed="7.68" length="15.05" shape="2190.67,2820.25 2190.52,2824.50 2189.00,2827.39 2186.11,2828.93 2181.86,2829.11"/>
    </edge>
    <edge id=":10617636419_4" function="internal">
        <lane id=":10617636419_4_0" index="0" disallow="tram rail_urban rail rail_electric rail_fast ship container cable_car subway aircraft wheelchair scooter drone" speed="6.10" length="9.06" shape="2182.18,2825.93 2184.74,2825.82 2186.48,2824.89 2187.39,2823.15 2187.48,2820.59"/>
    </edge>
    <edge id=":10617636419_5" function="internal">
        <lane id=":10617636419_5_0" index="0" disallow="tram rail_urban rail rail_electric rail_fast ship container cable_car subway aircraft wheelchair scooter drone" speed="13.89" length="14.54" shape="2182.18,2825.93 2196.66,2827.29"/>
    </edge>
    <edge id=":10617636423_0" function="internal">
        <lane id=":10617636423_0_0" index="0" disallow="tram rail_urban rail rail_electric rail_fast ship container cable_car subway aircraft wheelchair scooter drone" speed="6.50" length="9.03" shape="2172.41,2587.50 2171.69,2585.13 2170.39,2583.56 2168.50,2582.78 2166.03,2582.81"/>
    </edge>
    <edge id=":10617636423_1" function="internal">
        <lane id=":10617636423_1_0" index="0" disallow="tram rail_urban rail rail_electric rail_fast ship container cable_car subway aircraft wheelchair scooter drone" speed="8.01" length="14.20" shape="2172.41,2587.50 2172.37,2583.61 2173.59,2580.63 2176.06,2578.58 2179.77,2577.45"/>
    </edge>
    <edge id=":10617636423_2" function="internal">
        <lane id=":10617636423_2_0" index="0" disallow="tram rail_urban rail rail_electric rail_fast ship container cable_car subway aircraft wheelchair scooter drone" speed="6.52" length="9.05" shape="2180.26,2580.62 2177.89,2581.34 2176.32,2582.64 2175.55,2584.54 2175.57,2587.02"/>
    </edge>
    <edge id=":10617636423_3" function="internal">
        <lane id=":10617636423_3_0" index="0" disallow="tram rail_urban rail rail_electric rail_fast ship container cable_car subway aircraft wheelchair scooter drone" speed="13.89" length="14.40" shape="2180.26,2580.62 2166.03,2582.81"/>
    </edge>
    <edge id=":10617636423_4" function="internal">
        <lane id=":10617636423_4_0" index="0" disallow="tram rail_urban rail rail_electric rail_fast ship container cable_car subway aircraft wheelchair scooter drone" speed="13.89" length="14.40" shape="2165.54,2579.65 2179.77,2577.45"/>
    </edge>
    <edge id=":10617636423_5" function="internal">
        <lane id=":10617636423_5_0" index="0" disallow="tram rail_urban rail rail_electric rail_fast ship container cable_car subway aircraft wheelchair scooter drone" speed="8.00" length="4.07" shape="2165.54,2579.65 2169.43,2579.60 2169.60,2579.67"/>
    </edge>
    <edge id=":10617636423_6" function="internal">
        <lane id=":10617636423_6_0" index="0" disallow="tram rail_urban rail rail_electric rail_fast ship container cable_car subway aircraft wheelchair scooter drone" speed="8.00" length="10.13" shape="2169.60,2579.67 2172.40,2580.82 2174.45,2583.29 2175.57,2587.02"/>
    </edge>
    <edge id=":10718857404_0" function="internal">
        <lane id=":10718857404_0_0" index="0" disallow="tram rail_urban rail rail_electric rail_fast ship container cable_car subway aircraft wheelchair scooter drone" speed="13.89" length="14.40" shape="2839.89,3874.72 2825.49,3875.00"/>
    </edge>
    <edge id=":10718857404_1" function="internal">
        <lane id=":10718857404_1_0" index="0" disallow="tram rail_urban rail rail_electric rail_fast ship container cable_car subway aircraft wheelchair scooter drone" speed="8.10" length="4.02" shape="2839.89,3874.72 2836.07,3874.24 2835.92,3874.16"/>
    </edge>
    <edge id=":10718857404_6" function="internal">
        <lane id=":10718857404_6_0" index="0" disallow="tram rail_urban rail rail_electric rail_fast ship container cable_car subway aircraft wheelchair scooter drone" speed="8.10" length="10.22" shape="2835.92,3874.16 2833.28,3872.64 2831.53,3869.91 2830.79,3866.05"/>
    </edge>
    <edge id=":10718857404_2" function="internal">
        <lane id=":10718857404_2_0" index="0" disallow="tram rail_urban rail rail_electric rail_fast ship container cable_car subway aircraft wheelchair scooter drone" speed="6.62" length="9.18" shape="2833.99,3865.90 2834.46,3868.40 2835.59,3870.17 2837.38,3871.21 2839.82,3871.52"/>
    </edge>
    <edge id=":10718857404_3" function="internal">
        <lane id=":10718857404_3_0" index="0" disallow="tram rail_urban rail rail_electric rail_fast ship container cable_car subway aircraft wheelchair scooter drone" speed="7.95" length="14.30" shape="2833.99,3865.90 2833.62,3869.81 2832.08,3872.64 2829.37,3874.37 2825.49,3875.00"/>
    </edge>
    <edge id=":10718857404_4" function="internal">
        <lane id=":10718857404_4_0" index="0" disallow="tram rail_urban rail rail_electric rail_fast ship container cable_car subway aircraft wheelchair scooter drone" speed="6.44" length="9.03" shape="2825.42,3871.80 2827.88,3871.40 2829.59,3870.31 2830.56,3868.53 2830.79,3866.05"/>
    </edge>
    <edge id=":10718857404_5" function="internal">
        <lane id=":10718857404_5_0" index="0" disallow="tram rail_urban rail rail_electric rail_fast ship container cable_car subway aircraft wheelchair scooter drone" speed="13.89" length="14.40" shape="2825.42,3871.80 2839.82,3871.52"/>
    </edge>
    <edge id=":10752687986_0" function="internal">
        <lane id=":10752687986_0_0" index="0" disallow="tram rail_urban rail rail_electric rail_fast ship container cable_car subway aircraft wheelchair scooter drone" speed="6.49" length="9.03" shape="3078.33,3522.91 3076.91,3520.89 3075.18,3519.81 3073.14,3519.68 3070.80,3520.50"/>
    </edge>
    <edge id=":10752687986_1" function="internal">
        <lane id=":10752687986_1_0" index="0" disallow="tram rail_urban rail rail_electric rail_fast ship container cable_car subway aircraft wheelchair scooter drone" speed="13.89" length="14.34" shape="3078.33,3522.91 3072.09,3510.01"/>
    </edge>
    <edge id=":10752687986_2" function="internal">
        <lane id=":10752687986_2_0" index="0" disallow="tram rail_urban rail rail_electric rail_fast ship container cable_car subway aircraft wheelchair scooter drone" speed="13.89" length="14.20" shape="3074.99,3508.68 3081.18,3521.46"/>
    </edge>
    <edge id=":10752687986_3" function="internal">
        <lane id=":10752687986_3_0" index="0" disallow="tram rail_urban rail rail_electric rail_fast ship container cable_car subway aircraft wheelchair scooter drone" speed="8.13" length="3.82" shape="3074.99,3508.68 3076.07,3512.34"/>
    </edge>
    <edge id=":10752687986_6" function="internal">
        <lane id=":10752687986_6_0" index="0" disallow="tram rail_urban rail rail_electric rail_fast ship container cable_car subway aircraft wheelchair scooter drone" speed="8.13" length="10.34" shape="3076.07,3512.34 3075.73,3515.53 3073.98,3518.25 3070.80,3520.50"/>
    </edge>
    <edge id=":10752687986_4" function="internal">
        <lane id=":10752687986_4_0" index="0" disallow="tram rail_urban rail rail_electric rail_fast ship container cable_car subway aircraft wheelchair scooter drone" speed="6.66" length="9.17" shape="3069.33,3517.66 3071.40,3516.19 3072.55,3514.43 3072.78,3512.37 3072.09,3510.01"/>
    </edge>
    <edge id=":10752687986_5" function="internal">