<?xml version="1.0" encoding="UTF-8"?>

<!-- generated on 2026-03-18T00:13:11.864641+05:30 by Eclipse SUMO netconvert 1.25.0
<netconvertConfiguration xmlns:xsi="http://www.w3.org/2001/XMLSchema-instance" xsi:noNamespaceSchemaLocation="http://sumo.dlr.de/xsd/netconvertConfiguration.xsd">

    <input>
        <osm-files value="map.osm"/>
    </input>

    <output>
        <output-file value="area.net.xml"/>
    </output>

    <projection>
        <proj.utm value="true"/>
    </projection>

    <processing>
        <geometry.remove value="true"/>
        <roundabouts.guess value="true"/>
    </processing>

    <ramp_guessing>
        <ramps.guess value="true"/>
    </ramp_guessing>

    <junctions>
        <no-turnarounds value="true"/>
    </junctions>

</netconvertConfiguration>
-->

<net version="1.20" junctionCornerDetail="5" limitTurnSpeed="5.50" xmlns:xsi="http://www.w3.org/2001/XMLSchema-instance" xsi:noNamespaceSchemaLocation="http://sumo.dlr.de/xsd/net_file.xsd">

    <location netOffset="-707091.30,-957969.15" convBoundary="0.00,0.00,4573.74,5593.33" origBoundary="76.882183,8.661576,76.923764,8.712212" projParameter="+proj=utm +zone=43 +ellps=WGS84 +datum=WGS84 +units=m +no_defs"/>

    <type id="highway.path" priority="1" numLanes="1" speed="5.56" allow="pedestrian bicycle" oneway="0" width="2.00"/>
    <type id="highway.primary" priority="12" numLanes="2" speed="27.78" disallow="tram rail_urban rail rail_electric rail_fast ship container cable_car subway aircraft wheelchair scooter drone" oneway="0"/>
    <type id="highway.primary_link" priority="7" numLanes="1" speed="22.22" disallow="tram rail_urban rail rail_electric rail_fast ship container cable_car subway aircraft wheelchair scooter drone" oneway="0"/>
    <type id="highway.residential" priority="3" numLanes="1" speed="13.89" disallow="tram rail_urban rail rail_electric rail_fast ship container cable_car subway aircraft wheelchair scooter drone" oneway="0"/>
    <type id="highway.secondary" priority="11" numLanes="1" speed="27.78" disallow="tram rail_urban rail rail_electric rail_fast ship container cable_car subway aircraft wheelchair scooter drone" oneway="0"/>
    <type id="highway.service" priority="1" numLanes="1" speed="5.56" allow="pedestrian delivery bicycle" oneway="0"/>
    <type id="highway.tertiary" priority="10" numLanes="1" speed="22.22" disallow="tram rail_urban rail rail_electric rail_fast ship container cable_car subway aircraft wheelchair scooter drone" oneway="0"/>
    <type id="highway.unclassified" priority="4" numLanes="1" speed="13.89" disallow="tram rail_urban rail rail_electric rail_fast ship container cable_car subway aircraft wheelchair scooter drone" oneway="0"/>

    <edge id=":12094602271_0" function="internal">
        <lane id=":12094602271_0_0" index="0" disallow="tram rail_urban rail rail_electric rail_fast ship container cable_car subway aircraft wheelchair scooter drone" speed="6.70" length="9.29" shape="1572.61,2325.66 1570.26,2324.55 1568.12,2324.40 1566.20,2325.21 1564.48,2326.98"/>
    </edge>
    <edge id=":12094602271_1" function="internal">
        <lane id=":12094602271_1_0" index="0" disallow="tram rail_urban rail rail_electric rail_fast ship container cable_car subway aircraft wheelchair scooter drone" speed="7.91" length="14.38" shape="1572.61,2325.66 1569.61,2323.05 1568.23,2320.14 1568.45,2316.93 1570.28,2313.41"/>
    </edge>
    <edge id=":12094602271_2" function="internal">
        <lane id=":12094602271_2_0" index="0" disallow="tram rail_urban rail rail_electric rail_fast ship container cable_car subway aircraft wheelchair scooter drone" speed="6.40" length="9.04" shape="1572.88,2315.27 1571.73,2317.48 1571.59,2319.50 1572.46,2321.33 1574.34,2322.97"/>
    </edge>
    <edge id=":12094602271_3" function="internal">
        <lane id=":12094602271_3_0" index="0" disallow="tram rail_urban rail rail_electric rail_fast ship container cable_car subway aircraft wheelchair scooter drone" speed="13.89" length="14.41" shape="1572.88,2315.27 1564.48,2326.98"/>
    </edge>
    <edge id=":12094602271_4" function="internal">
        <lane id=":12094602271_4_0" index="0" disallow="tram rail_urban rail rail_electric rail_fast ship container cable_car subway aircraft wheelchair scooter drone" speed="13.89" length="14.41" shape="1561.88,2325.11 1570.28,2313.41"/>
    </edge>
    <edge id=":12094602271_5" function="internal">
        <lane id=":12094602271_5_0" index="0" disallow="tram rail_urban rail rail_electric rail_fast ship container cable_car subway aircraft wheelchair scooter drone" speed="8.17" length="3.99" shape="1561.88,2325.11 1564.53,2322.37 1564.69,2322.30"/>
    </edge>
    <edge id=":12094602271_6" function="internal">
        <lane id=":12094602271_6_0" index="0" disallow="tram rail_urban rail rail_electric rail_fast ship container cable_car subway aircraft wheelchair scooter drone" speed="8.17" length="10.28" shape="1564.69,2322.30 1567.50,2321.09 1570.77,2321.30 1574.34,2322.97"/>
    </edge>
    <edge id=":12096393026_0" function="internal">
        <lane id=":12096393026_0_0" index="0" disallow="tram rail_urban rail rail_electric rail_fast ship container cable_car subway aircraft wheelchair scooter drone" speed="13.89" length="14.45" shape="2130.38,1699.86 2128.41,1696.82 2126.02,1694.20 2123.42,1691.73 2120.81,1689.13"/>
    </edge>
    <edge id=":12096393026_1" function="internal">
        <lane id=":12096393026_1_0" index="0" disallow="tram rail_urban rail rail_electric rail_fast ship container cable_car subway aircraft wheelchair scooter drone" speed="9.12" length="3.86" shape="2130.38,1699.86 2128.98,1696.27"/>
    </edge>
    <edge id=":12096393026_6" function="internal">
        <lane id=":12096393026_6_0" index="0" disallow="tram rail_urban rail rail_electric rail_fast ship container cable_car subway aircraft wheelchair scooter drone" speed="9.12" length="9.93" shape="2128.98,1696.27 2128.91,1696.07 2128.51,1692.66 2129.19,1689.63 2130.96,1686.99"/>
    </edge>
    <edge id=":12096393026_2" function="internal">
        <lane id=":12096393026_2_0" index="0" disallow="tram rail_urban rail rail_electric rail_fast ship container cable_car subway aircraft wheelchair scooter drone" speed="7.49" length="9.04" shape="2133.29,1689.18 2132.11,1690.93 2131.64,1692.92 2131.88,1695.15 2132.83,1697.61"/>
    </edge>
    <edge id=":12096393026_3" function="internal">
        <lane id=":12096393026_3_0" index="0" disallow="tram rail_urban rail rail_electric rail_fast ship container cable_car subway aircraft wheelchair scooter drone" speed="7.88" length="14.46" shape="2133.29,1689.18 2130.16,1691.67 2127.03,1692.49 2123.92,1691.65 2120.81,1689.13"/>
    </edge>
    <edge id=":12096393026_4" function="internal">
        <lane id=":12096393026_4_0" index="0" disallow="tram rail_urban rail rail_electric rail_fast ship container cable_car subway aircraft wheelchair scooter drone" speed="6.36" length="9.04" shape="2123.16,1686.95 2125.10,1688.53 2127.05,1689.06 2129.00,1688.55 2130.96,1686.99"/>
    </edge>
    <edge id=":12096393026_5" function="internal">
        <lane id=":12096393026_5_0" index="0" disallow="tram rail_urban rail rail_electric rail_fast ship container cable_car subway aircraft wheelchair scooter drone" speed="13.89" length="14.46" shape="2123.16,1686.95 2125.79,1689.54 2128.42,1691.99 2130.85,1694.58 2132.83,1697.61"/>
    </edge>
    <edge id=":12096393032_0" function="internal">
        <lane id=":12096393032_0_0" index="0" disallow="tram rail_urban rail rail_electric rail_fast ship container cable_car subway aircraft wheelchair scooter drone" speed="7.15" length="9.98" shape="2513.14,1711.95 2512.37,1709.62 2510.90,1707.97 2508.71,1707.00 2505.80,1706.72"/>
    </edge>
    <edge id=":12096393032_1" function="internal">
        <lane id=":12096393032_1_0" index="0" disallow="tram rail_urban rail rail_electric rail_fast ship container cable_car subway aircraft wheelchair scooter drone" speed="13.89" length="14.60" shape="2513.14,1711.95 2510.42,1697.60"/>
    </edge>
    <edge id=":12096393032_2" function="internal">
        <lane id=":12096393032_2_0" index="0" disallow="tram rail_urban rail rail_electric rail_fast ship container cable_car subway aircraft wheelchair scooter drone" speed="13.89" length="14.82" shape="2513.54,1696.91 2516.30,1711.47"/>
    </edge>
    <edge id=":12096393032_3" function="internal">
        <lane id=":12096393032_3_0" index="0" disallow="tram rail_urban rail rail_electric rail_fast ship container cable_car subway aircraft wheelchair scooter drone" speed="7.68" length="4.52" shape="2513.54,1696.91 2513.86,1701.14 2513.76,1701.40"/>
    </edge>
    <edge id=":12096393032_6" function="internal">
        <lane id=":12096393032_6_0" index="0" disallow="tram rail_urban rail rail_electric rail_fast ship container cable_car subway aircraft wheelchair scooter drone" speed="7.68" length="10.50" shape="2513.76,1701.40 2512.68,1704.18 2509.99,1706.04 2505.80,1706.72"/>
    </edge>
    <edge id=":12096393032_4" function="internal">
        <lane id=":12096393032_4_0" index="0" disallow="tram rail_urban rail rail_electric rail_fast ship container cable_car subway aircraft wheelchair scooter drone" speed="6.11" length="9.06" shape="2505.75,1703.52 2508.28,1703.11 2509.90,1701.99 2510.61,1700.15 2510.42,1697.60"/>
    </edge>
    <edge id=":12096393032_5" function="internal">
        <lane id=":12096393032_5_0" index="0" disallow="tram rail_urban rail rail_electric rail_fast ship container cable_car subway aircraft wheelchair scooter drone" speed="8.54" length="14.65" shape="2505.75,1703.52 2509.90,1703.96 2513.05,1705.43 2515.18,1707.93 2516.30,1711.47"/>
    </edge>
    <edge id=":12096393045_0" function="internal">
        <lane id=":12096393045_0_0" index="0" disallow="tram rail_urban rail rail_electric rail_fast ship container cable_car subway aircraft wheelchair scooter drone" speed="22.22" length="14.55" shape="2599.61,1416.89 2595.73,1430.91"/>
    </edge>
    <edge id=":12096393045_1" function="internal">
        <lane id=":12096393045_1_0" index="0" disallow="tram rail_urban rail rail_electric rail_fast ship container cable_car subway aircraft wheelchair scooter drone" speed="8.81" length="3.77" shape="2599.61,1416.89 2598.11,1420.18 2597.99,1420.29"/>
    </edge>
    <edge id=":12096393045_6" function="internal">
        <lane id=":12096393045_6_0" index="0" disallow="tram rail_urban rail rail_electric rail_fast ship container cable_car subway aircraft wheelchair scooter drone" speed="8.81" length="10.83" shape="2597.99,1420.29 2595.72,1422.45 2592.44,1423.71 2588.27,1423.94"/>
    </edge>
    <edge id=":12096393045_2" function="internal">
        <lane id=":12096393045_2_0" index="0" disallow="tram rail_urban rail rail_electric rail_fast ship container cable_car subway aircraft wheelchair scooter drone" speed="7.45" length="10.20" shape="2588.46,1420.75 2591.46,1420.60 2593.80,1419.77 2595.49,1418.24 2596.52,1416.04"/>
    </edge>
    <edge id=":12096393045_3" function="internal">
        <lane id=":12096393045_3_0" index="0" disallow="tram rail_urban rail rail_electric rail_fast ship container cable_car subway aircraft wheelchair scooter drone" speed="7.67" length="15.06" shape="2588.46,1420.75 2592.63,1421.60 2595.24,1423.58 2596.27,1426.68 2595.73,1430.91"/>
    </edge>
    <edge id=":12096393045_4" function="internal">
        <lane id=":12096393045_4_0" index="0" disallow="tram rail_urban rail rail_electric rail_fast ship container cable_car subway aircraft wheelchair scooter drone" speed="6.10" length="9.06" shape="2592.65,1430.06 2592.97,1427.51 2592.35,1425.65 2590.78,1424.46 2588.27,1423.94"/>
    </edge>
    <edge id=":12096393045_5" function="internal">
        <lane id=":12096393045_5_0" index="0" disallow="tram rail_urban rail rail_electric rail_fast ship container cable_car subway aircraft wheelchair scooter drone" speed="22.22" length="14.55" shape="2592.65,1430.06 2596.52,1416.04"/>
    </edge>
    <edge id=":12096393049_0" function="internal">
        <lane id=":12096393049_0_0" index="0" disallow="tram rail_urban rail rail_electric rail_fast ship container cable_car subway aircraft wheelchair scooter drone" speed="22.22" length="14.45" shape="3015.84,1424.91 3001.71,1427.94"/>
    </edge>
    <edge id=":12096393049_1" function="internal">
        <lane id=":12096393049_1_0" index="0" disallow="tram rail_urban rail rail_electric rail_fast ship container cable_car subway aircraft wheelchair scooter drone" speed="7.80" length="4.10" shape="3015.84,1424.91 3011.75,1425.19"/>
    </edge>
    <edge id=":12096393049_6" function="internal">
        <lane id=":12096393049_6_0" index="0" disallow="tram rail_urban rail rail_electric rail_fast ship container cable_car subway aircraft wheelchair scooter drone" speed="7.80" length="10.59" shape="3011.75,1425.19 3008.71,1424.04 3006.73,1421.47 3005.79,1417.49"/>
    </edge>
    <edge id=":12096393049_2" function="internal">
        <lane id=":12096393049_2_0" index="0" disallow="tram rail_urban rail rail_electric rail_fast ship container cable_car subway aircraft wheelchair scooter drone" speed="6.26" length="9.05" shape="3008.98,1417.21 3009.56,1419.66 3010.78,1421.25 3012.65,1421.95 3015.17,1421.78"/>
    </edge>
    <edge id=":12096393049_3" function="internal">
        <lane id=":12096393049_3_0" index="0" disallow="tram rail_urban rail rail_electric rail_fast ship container cable_car subway aircraft wheelchair scooter drone" speed="8.44" length="14.40" shape="3008.98,1417.21 3008.82,1421.25 3007.56,1424.39 3005.19,1426.62 3001.71,1427.94"/>
    </edge>
    <edge id=":12096393049_4" function="internal">
        <lane id=":12096393049_4_0" index="0" disallow="tram rail_urban rail rail_electric rail_fast ship container cable_car subway aircraft wheelchair scooter drone" speed="7.03" length="9.69" shape="3001.04,1424.81 3003.32,1423.92 3004.87,1422.41 3005.70,1420.26 3005.79,1417.49"/>
    </edge>
    <edge id=":12096393049_5" function="internal">
        <lane id=":12096393049_5_0" index="0" disallow="tram rail_urban rail rail_electric rail_fast ship container cable_car subway aircraft wheelchair scooter drone" speed="22.22" length="14.45" shape="3001.04,1424.81 3015.17,1421.78"/>
    </edge>
    <edge id=":12096393052_0" function="internal">
        <lane id=":12096393052_0_0" index="0" disallow="tram rail_urban rail rail_electric rail_fast ship container cable_car subway aircraft wheelchair scooter drone" speed="6.72" length="9.31" shape="3238.38,1220.49 3237.83,1218.10 3236.61,1216.40 3234.70,1215.41 3232.11,1215.12"/>
    </edge>
    <edge id=":12096393052_1" function="internal">
        <lane id=":12096393052_1_0" index="0" disallow="tram rail_urban rail rail_electric rail_fast ship container cable_car subway aircraft wheelchair scooter drone" speed="22.22" length="14.41" shape="3238.38,1220.49 3237.30,1206.13"/>
    </edge>
    <edge id=":12096393052_2" function="internal">
        <lane id=":12096393052_2_0" index="0" disallow="tram rail_urban rail rail_electric rail_fast ship container cable_car subway aircraft wheelchair scooter drone" speed="22.22" length="14.41" shape="3240.49,1205.89 3241.57,1220.26"/>
    </edge>
    <edge id=":12096393052_3" function="internal">
        <lane id=":12096393052_3_0" index="0" disallow="tram rail_urban rail rail_electric rail_fast ship container cable_car subway aircraft wheelchair scooter drone" speed="7.91" length="4.11" shape="3240.49,1205.89 3240.22,1209.85 3240.16,1209.97"/>
    </edge>
    <edge id=":12096393052_6" function="internal">
        <lane id=":12096393052_6_0" index="0" disallow="tram rail_urban rail rail_electric rail_fast ship container cable_car subway aircraft wheelchair scooter drone" speed="7.91" length="10.29" shape="3240.16,1209.97 3238.74,1212.71 3236.03,1214.47 3232.11,1215.12"/>
    </edge>
    <edge id=":12096393052_4" function="internal">
        <lane id=":12096393052_4_0" index="0" disallow="tram rail_urban rail rail_electric rail_fast ship container cable_car subway aircraft wheelchair scooter drone" speed="6.39" length="9.04" shape="3232.04,1211.92 3234.50,1211.51 3236.20,1210.41 3237.13,1208.62 3237.30,1206.13"/>
    </edge>
    <edge id=":12096393052_5" function="internal">
        <lane id=":12096393052_5_0" index="0" disallow="tram rail_urban rail rail_electric rail_fast ship container cable_car subway aircraft wheelchair scooter drone" speed="8.18" length="14.27" shape="3232.04,1211.92 3235.97,1212.37 3238.87,1213.91 3240.74,1216.54 3241.57,1220.26"/>
    </edge>
    <edge id=":12096393057_0" function="internal">
        <lane id=":12096393057_0_0" index="0" disallow="tram rail_urban rail rail_electric rail_fast ship container cable_car subway aircraft wheelchair scooter drone" speed="6.52" length="8.52" shape="2942.86,1060.25 2940.60,1060.71 2938.97,1061.78 2937.98,1063.46 2937.62,1065.74"/>
    </edge>
    <edge id=":12096393057_1" function="internal">
        <lane id=":12096393057_1_0" index="0" disallow="tram rail_urban rail rail_electric rail_fast ship container cable_car subway aircraft wheelchair scooter drone" speed="10.56" length="12.54" shape="2942.86,1060.25 2939.37,1060.17 2936.30,1059.47 2933.66,1058.16 2931.44,1056.22"/>
    </edge>
    <edge id=":12096393057_2" function="internal">
        <lane id=":12096393057_2_0" index="0" disallow="tram rail_urban rail rail_electric rail_fast ship container cable_car subway aircraft wheelchair scooter drone" speed="9.31" length="9.64" shape="2933.83,1054.09 2935.50,1055.52 2937.53,1056.50 2939.91,1057.01 2942.66,1057.05"/>
    </edge>
    <edge id=":12096393057_3" function="internal">
        <lane id=":12096393057_3_0" index="0" disallow="tram rail_urban rail rail_electric rail_fast ship container cable_car subway aircraft wheelchair scooter drone" speed="12.16" length="12.61" shape="2933.83,1054.09 2935.84,1056.78 2937.00,1059.44 2937.53,1062.34 2937.62,1065.74"/>
    </edge>
    <edge id=":12096393057_4" function="internal">
        <lane id=":12096393057_4_0" index="0" disallow="tram rail_urban rail rail_electric rail_fast ship container cable_car subway aircraft wheelchair scooter drone" speed="11.04" length="10.33" shape="2934.42,1065.69 2934.45,1062.63 2934.20,1060.48 2933.31,1058.56 2931.44,1056.22"/>
    </edge>
    <edge id=":12096393057_5" function="internal">
        <lane id=":12096393057_5_0" index="0" disallow="tram rail_urban rail rail_electric rail_fast ship container cable_car subway aircraft wheelchair scooter drone" speed="8.02" length="3.63" shape="2934.42,1065.69 2934.98,1062.10"/>
    </edge>
    <edge id=":12096393057_6" function="internal">
        <lane id=":12096393057_6_0" index="0" disallow="tram rail_urban rail rail_electric rail_fast ship container cable_car subway aircraft wheelchair scooter drone" speed="8.02" length="9.75" shape="2934.98,1062.10 2936.55,1059.47 2939.11,1057.79 2942.66,1057.05"/>
    </edge>
    <edge id=":12096393060_0" function="internal">
        <lane id=":12096393060_0_0" index="0" disallow="tram rail_urban rail rail_electric rail_fast ship container cable_car subway aircraft wheelchair scooter drone" speed="6.81" length="9.48" shape="2952.74,986.49 2951.57,984.33 2949.90,983.03 2947.73,982.57 2945.07,982.98"/>
    </edge>
    <edge id=":12096393060_1" function="internal">
        <lane id=":12096393060_1_0" index="0" disallow="tram rail_urban rail rail_electric rail_fast ship container cable_car subway aircraft wheelchair scooter drone" speed="13.89" length="14.47" shape="2952.74,986.49 2947.61,972.96"/>
    </edge>
    <edge id=":12096393060_2" function="internal">
        <lane id=":12096393060_2_0" index="0" disallow="tram rail_urban rail rail_electric rail_fast ship container cable_car subway aircraft wheelchair scooter drone" speed="13.89" length="14.57" shape="2950.59,971.78 2955.76,985.40"/>
    </edge>
    <edge id=":12096393060_3" function="internal">
        <lane id=":12096393060_3_0" index="0" disallow="tram rail_urban rail rail_electric rail_fast ship container cable_car subway aircraft wheelchair scooter drone" speed="7.83" length="4.27" shape="2950.59,971.78 2951.53,975.72 2951.49,975.93"/>
    </edge>
    <edge id=":12096393060_6" function="internal">
        <lane id=":12096393060_6_0" index="0" disallow="tram rail_urban rail rail_electric rail_fast ship container cable_car subway aircraft wheelchair scooter drone" speed="7.83" length="10.31" shape="2951.49,975.93 2950.92,978.90 2948.77,981.32 2945.07,982.98"/>
    </edge>
    <edge id=":12096393060_4" function="internal">
        <lane id=":12096393060_4_0" index="0" disallow="tram rail_urban rail rail_electric rail_fast ship container cable_car subway aircraft wheelchair scooter drone" speed="6.30" length="9.04" shape="2944.19,979.90 2946.49,978.87 2947.82,977.37 2948.20,975.40 2947.61,972.96"/>
    </edge>
    <edge id=":12096393060_5" function="internal">
        <lane id=":12096393060_5_0" index="0" disallow="tram rail_urban rail rail_electric rail_fast ship container cable_car subway aircraft wheelchair scooter drone" speed="8.26" length="14.39" shape="2944.19,979.90 2948.17,979.31 2951.43,980.04 2953.95,982.07 2955.76,985.40"/>
    </edge>
    <edge id=":12096393065_0" function="internal">
        <lane id=":12096393065_0_0" index="0" disallow="tram rail_urban rail rail_electric rail_fast ship container cable_car subway aircraft wheelchair scooter drone" speed="10.16" length="11.25" shape="3004.87,774.89 3002.71,775.93 3000.78,777.63 2999.08,779.99 2997.61,783.02"/>
    </edge>
    <edge id=":12096393065_1" function="internal">
        <lane id=":12096393065_1_0" index="0" disallow="tram rail_urban rail rail_electric rail_fast ship container cable_car subway aircraft wheelchair scooter drone" speed="13.89" length="14.05" shape="3004.87,774.89 3001.37,775.69 2997.97,775.95 2994.54,775.78 2990.95,775.31"/>
    </edge>
    <edge id=":12096393065_2" function="internal">
        <lane id=":12096393065_2_0" index="0" disallow="tram rail_urban rail rail_electric rail_fast ship container cable_car subway aircraft wheelchair scooter drone" speed="13.89" length="12.61" shape="2991.46,772.15 2994.82,772.64 2997.75,772.84 3000.66,772.61 3003.93,771.83"/>
    </edge>
    <edge id=":12096393065_3" function="internal">
        <lane id=":12096393065_3_0" index="0" disallow="tram rail_urban rail rail_electric rail_fast ship container cable_car subway aircraft wheelchair scooter drone" speed="7.66" length="4.04" shape="2991.46,772.15 2995.31,773.35"/>
    </edge>
    <edge id=":12096393065_6" function="internal">
        <lane id=":12096393065_6_0" index="0" disallow="tram rail_urban rail rail_electric rail_fast ship container cable_car subway aircraft wheelchair scooter drone" speed="7.66" length="11.09" shape="2995.31,773.35 2995.55,773.42 2997.94,775.66 2998.63,778.86 2997.61,783.02"/>
    </edge>
    <edge id=":12096393065_4" function="internal">
        <lane id=":12096393065_4_0" index="0" disallow="tram rail_urban rail rail_electric rail_fast ship container cable_car subway aircraft wheelchair scooter drone" speed="6.07" length="9.07" shape="2994.64,781.83 2995.25,779.33 2994.84,777.41 2993.41,776.07 2990.95,775.31"/>
    </edge>
    <edge id=":12096393065_5" function="internal">
        <lane id=":12096393065_5_0" index="0" disallow="tram rail_urban rail rail_electric rail_fast ship container cable_car subway aircraft wheelchair scooter drone" speed="11.32" length="14.09" shape="2994.64,781.83 2996.45,778.15 2998.60,775.26 3001.09,773.15 3003.93,771.83"/>
    </edge>
    <edge id=":12096393066_0" function="internal">
        <lane id=":12096393066_0_0" index="0" disallow="tram rail_urban rail rail_electric rail_fast ship container cable_car subway aircraft wheelchair scooter drone" speed="13.89" length="15.41" shape="2941.10,903.25 2933.03,916.37"/>
    </edge>
    <edge id=":12096393066_1" function="internal">
        <lane id=":12096393066_1_0" index="0" disallow="tram rail_urban rail rail_electric rail_fast ship container cable_car subway aircraft wheelchair scooter drone" speed="10.74" length="3.54" shape="2941.10,903.25 2938.90,905.75 2938.72,905.85"/>
    </edge>
    <edge id=":12096393066_6" function="internal">
        <lane id=":12096393066_6_0" index="0" disallow="tram rail_urban rail rail_electric rail_fast ship container cable_car subway aircraft wheelchair scooter drone" speed="10.74" length="12.21" shape="2938.72,905.85 2935.82,907.50 2931.88,908.50 2927.07,908.76"/>
    </edge>
    <edge id=":12096393066_2" function="internal">
        <lane id=":12096393066_2_0" index="0" disallow="tram rail_urban rail rail_electric rail_fast ship container cable_car subway aircraft wheelchair scooter drone" speed="9.59" length="12.43" shape="2927.15,905.56 2931.09,905.38 2934.28,904.66 2936.71,903.39 2938.38,901.57"/>
    </edge>
    <edge id=":12096393066_3" function="internal">
        <lane id=":12096393066_3_0" index="0" disallow="tram rail_urban rail rail_electric rail_fast ship container cable_car subway aircraft wheelchair scooter drone" speed="7.40" length="16.83" shape="2927.15,905.56 2932.15,906.34 2934.80,908.41 2935.09,911.75 2933.03,916.37"/>
    </edge>
    <edge id=":12096393066_4" function="internal">
        <lane id=":12096393066_4_0" index="0" disallow="tram rail_urban rail rail_electric rail_fast ship container cable_car subway aircraft wheelchair scooter drone" speed="5.66" length="9.24" shape="2930.30,914.70 2931.44,912.16 2931.27,910.32 2929.82,909.19 2927.07,908.76"/>
    </edge>
    <edge id=":12096393066_5" function="internal">
        <lane id=":12096393066_5_0" index="0" disallow="tram rail_urban rail rail_electric rail_fast ship container cable_car subway aircraft wheelchair scooter drone" speed="13.89" length="15.41" shape="2930.30,914.70 2938.38,901.57"/>
    </edge>
    <edge id=":12096393069_0" function="internal">
        <lane id=":12096393069_0_0" index="0" disallow="tram rail_urban rail rail_electric rail_fast ship container cable_car subway aircraft wheelchair scooter drone" speed="13.89" length="17.24" shape="2778.04,748.64 2773.97,749.09 2769.46,749.34 2764.94,749.43 2760.83,749.44"/>
    </edge>
    <edge id=":12096393069_1" function="internal">
        <lane id=":12096393069_1_0" index="0" disallow="tram rail_urban rail rail_electric rail_fast ship container cable_car subway aircraft wheelchair scooter drone" speed="11.68" length="3.71" shape="2778.04,748.64 2774.69,748.51 2774.36,748.38"/>
    </edge>
    <edge id=":12096393069_6" function="internal">
        <lane id=":12096393069_6_0" index="0" disallow="tram rail_urban rail rail_electric rail_fast ship container cable_car subway aircraft wheelchair scooter drone" speed="11.68" length="13.63" shape="2774.36,748.38 2771.12,747.13 2767.35,744.51 2763.36,740.63"/>
    </edge>
    <edge id=":12096393069_2" function="internal">
        <lane id=":12096393069_2_0" index="0" disallow="tram rail_urban rail rail_electric rail_fast ship container cable_car subway aircraft wheelchair scooter drone" speed="10.61" length="14.21" shape="2765.73,738.48 2769.11,741.81 2772.20,744.09 2775.02,745.31 2777.56,745.48"/>
    </edge>
    <edge id=":12096393069_3" function="internal">
        <lane id=":12096393069_3_0" index="0" disallow="tram rail_urban rail rail_electric rail_fast ship container cable_car subway aircraft wheelchair scooter drone" speed="7.40" length="18.81" shape="2765.73,738.48 2769.20,743.31 2769.54,746.75 2766.75,748.79 2760.83,749.44"/>
    </edge>
    <edge id=":12096393069_4" function="internal">
        <lane id=":12096393069_4_0" index="0" disallow="tram rail_urban rail rail_electric rail_fast ship container cable_car subway aircraft wheelchair scooter drone" speed="5.49" length="9.62" shape="2760.86,746.24 2763.88,745.91 2765.31,744.86 2765.14,743.10 2763.36,740.63"/>
    </edge>
    <edge id=":12096393069_5" function="internal">
        <lane id=":12096393069_5_0" index="0" disallow="tram rail_urban rail rail_electric rail_fast ship container cable_car subway aircraft wheelchair scooter drone" speed="13.89" length="16.73" shape="2760.86,746.24 2764.88,746.24 2769.23,746.15 2773.57,745.92 2777.56,745.48"/>
    </edge>
    <edge id=":12096393076_0" function="internal">
        <lane id=":12096393076_0_0" index="0" disallow="tram rail_urban rail rail_electric rail_fast ship container cable_car subway aircraft wheelchair scooter drone" speed="9.81" length="12.63" shape="2421.51,928.18 2418.32,925.71 2415.37,924.16 2412.66,923.51 2410.20,923.78"/>
    </edge>
    <edge id=":12096393076_1" function="internal">
        <lane id=":12096393076_1_0" index="0" disallow="tram rail_urban rail rail_electric rail_fast ship container cable_car subway aircraft wheelchair scooter drone" speed="7.39" length="17.01" shape="2421.51,928.18 2418.13,924.31 2417.43,921.02 2419.42,918.30 2424.09,916.17"/>
    </edge>
    <edge id=":12096393076_2" function="internal">
        <lane id=":12096393076_2_0" index="0" disallow="tram rail_urban rail rail_electric rail_fast ship container cable_car subway aircraft wheelchair scooter drone" speed="5.64" length="9.27" shape="2425.03,919.23 2422.48,920.39 2421.40,921.87 2421.78,923.66 2423.63,925.77"/>
    </edge>
    <edge id=":12096393076_3" function="internal">
        <lane id=":12096393076_3_0" index="0" disallow="tram rail_urban rail rail_electric rail_fast ship container cable_car subway aircraft wheelchair scooter drone" speed="13.89" length="15.52" shape="2425.03,919.23 2410.20,923.78"/>
    </edge>
    <edge id=":12096393076_4" function="internal">
        <lane id=":12096393076_4_0" index="0" disallow="tram rail_urban rail rail_electric rail_fast ship container cable_car subway aircraft wheelchair scooter drone" speed="13.89" length="15.52" shape="2409.26,920.72 2424.09,916.17"/>
    </edge>
    <edge id=":12096393076_5" function="internal">