<additional>
    <poly id="building_0" type="building" color="200,200,200" fill="true" layer="2" shape="3157.72,1585.28 3116.13,1575.73 3113.19,1588.34 3189.57,1605.90 3193.26,1590.01 3182.30,1587.50 3183.51,1582.27 3159.70,1576.80 3157.72,1585.28"/>
    <poly id="building_1" type="building" color="200,200,200" fill="true" layer="2" shape="2736.32,2693.77 2743.08,2696.89 2745.92,2690.74 2739.45,2687.05 2736.32,2693.77"/>
    <poly id="building_2" type="building" color="200,200,200" fill="true" layer="2" shape="2984.79,1915.04 2996.65,1917.61 2995.06,1924.96 2981.82,1922.37 2984.79,1915.04"/>
    <poly id="building_3" type="building" color="200,200,200" fill="true" layer="2" shape="2920.40,2057.08 2934.57,2057.73 2934.50,2071.23 2947.78,2073.05 2949.69,2046.66 2936.70,2044.55 2921.94,2043.00 2920.40,2057.08"/>
    <poly id="water_4" type="water" color="170,211,223" fill="true" layer="0" shape="1826.80,1427.19 1816.98,1420.93 1813.90,1412.02 1816.18,1402.25 1819.79,1395.60 1829.20,1393.42 1832.79,1391.22 1836.86,1384.13 1843.52,1393.50 1856.94,1395.34 1873.97,1389.64 1884.30,1383.92 1895.40,1399.53 1873.44,1407.43 1867.16,1409.62 1862.64,1417.59 1854.55,1424.67 1844.25,1426.84 1837.55,1423.24 1838.93,1415.70 1840.30,1411.26 1833.59,1411.68 1826.86,1414.75 1823.71,1418.74 1827.71,1423.19 1833.06,1429.01 1826.80,1427.19"/>
    <poly id="water_5" type="water" color="170,211,223" fill="true" layer="0" shape="1896.86,1376.42 1901.73,1387.56 1905.24,1400.02 1905.66,1406.69 1911.93,1404.50 1920.87,1407.67 1923.60,1398.34 1925.42,1392.12 1923.65,1387.23 1917.40,1386.31 1914.27,1384.07 1916.99,1377.41 1913.88,1373.84 1907.63,1372.48 1900.01,1372.44 1896.86,1376.42"/>
    <poly id="water_6" type="water" color="170,211,223" fill="true" layer="0" shape="1885.65,1380.37 1877.62,1376.32 1873.61,1373.19 1868.70,1370.06 1866.94,1363.82 1867.88,1354.93 1871.93,1350.07 1878.19,1351.44 1882.68,1348.34 1888.91,1356.38 1892.00,1365.73 1893.31,1371.51 1893.29,1375.51 1885.65,1380.37"/>
    <poly id="building_7" type="building" color="200,200,200" fill="true" layer="2" shape="2921.43,1970.73 2921.44,1983.78 2939.66,1983.78 2939.67,2010.84 2949.19,2010.84 2949.19,1970.72 2921.43,1970.73"/>
    <poly id="building_8" type="building" color="200,200,200" fill="true" layer="2" shape="3230.61,1868.45 3243.22,1872.84 3249.20,1855.86 3236.60,1851.47 3230.61,1868.45"/>
    <poly id="water_9" type="water" color="170,211,223" fill="true" layer="0" shape="3740.16,2581.77 3753.74,2581.84 3755.56,2573.06 3744.36,2569.47 3740.16,2581.77"/>
    <poly id="water_10" type="water" color="170,211,223" fill="true" layer="0" shape="2099.94,2629.84 2115.26,2634.02 2122.41,2622.32 2104.73,2616.36 2099.94,2629.84"/>
    <poly id="water_11" type="water" color="170,211,223" fill="true" layer="0" shape="3102.76,1175.40 3082.60,1192.90 3103.73,1216.47 3136.89,1199.05 3102.76,1175.40"/>
    <poly id="building_12" type="building" color="200,200,200" fill="true" layer="2" shape="3662.47,1290.29 3662.55,1273.86 3691.47,1276.36 3687.25,1292.76 3662.47,1290.29"/>
    <poly id="education_13" type="education" color="255,255,228" fill="true" layer="-1" shape="4185.25,2450.89 4231.36,2448.35 4230.24,2432.46 4226.80,2415.12 4185.35,2415.93 4185.25,2450.89"/>
    <poly id="building_14" type="building" color="200,200,200" fill="true" layer="2" shape="4190.56,2445.53 4225.19,2443.54 4227.23,2436.08 4224.75,2431.07 4217.23,2430.70 4216.60,2422.39 4205.41,2420.51 4207.16,2436.97 4190.01,2439.22 4190.56,2445.53"/>
    <poly id="building_15" type="building" color="200,200,200" fill="true" layer="2" shape="3049.97,1411.09 3047.94,1405.51 3048.85,1398.18 3050.64,1395.26 3060.97,1396.19 3067.16,1396.81 3076.61,1396.27 3079.27,1396.57 3079.54,1403.32 3079.80,1407.73 3079.20,1411.24 3049.97,1411.09"/>
    <poly id="commercial_16" type="commercial" color="242,218,218" fill="true" layer="-1" shape="2719.29,2727.62 2725.22,2728.49 2725.74,2725.30 2721.00,2724.60 2719.29,2727.62"/>
    <poly id="building_17" type="building" color="200,200,200" fill="true" layer="2" shape="2800.39,2605.44 2804.01,2601.38 2819.91,2610.65 2815.77,2614.97 2800.39,2605.44"/>
    <poly id="building_18" type="building" color="200,200,200" fill="true" layer="2" shape="2980.19,1972.83 2984.15,1987.30 3005.43,1981.62 3003.27,1966.72 2980.19,1972.83"/>
    <poly id="building_19" type="building" color="200,200,200" fill="true" layer="2" shape="3077.87,1681.46 3079.49,1671.47 3138.07,1680.44 3135.30,1695.98 3077.87,1681.46"/>
    <poly id="building_20" type="building" color="200,200,200" fill="true" layer="2" shape="2991.88,1908.05 2994.55,1898.61 3054.07,1920.62 3050.86,1943.84 3014.44,1931.15 3016.33,1916.23 2991.88,1908.05"/>
    <poly id="building_21" type="building" color="200,200,200" fill="true" layer="2" shape="3042.65,1748.04 3035.96,1746.55 3036.20,1738.53 3044.16,1740.33 3042.65,1748.04"/>
    <poly id="building_22" type="building" color="200,200,200" fill="true" layer="2" shape="2896.25,1850.70 2805.42,1851.13 2805.77,1840.85 2897.74,1830.66 2896.25,1850.70"/>
    <poly id="building_23" type="building" color="200,200,200" fill="true" layer="2" shape="2765.97,1848.97 2774.73,1849.01 2777.43,1839.94 2765.82,1839.68 2765.97,1848.97"/>
    <poly id="commercial_24" type="commercial" color="242,218,218" fill="true" layer="-1" shape="3065.61,1832.88 3058.49,1841.84 3067.01,1847.45 3074.13,1841.62 3065.61,1832.88"/>
    <poly id="commercial_25" type="commercial" color="242,218,218" fill="true" layer="-1" shape="3035.78,1815.42 3034.96,1823.43 3050.47,1829.97 3053.67,1820.60 3035.78,1815.42"/>
    <poly id="building_26" type="building" color="200,200,200" fill="true" layer="2" shape="3013.27,1754.70 3014.34,1738.92 3021.09,1739.15 3019.82,1754.33 3013.27,1754.70"/>
    <poly id="water_27" type="water" color="170,211,223" fill="true" layer="0" shape="2609.66,2214.25 2627.67,2214.04 2628.01,2205.84 2614.92,2203.29 2609.66,2214.25"/>
    <poly id="water_28" type="water" color="170,211,223" fill="true" layer="0" shape="3825.18,562.53 3824.80,569.30 3817.43,569.09 3817.82,562.13 3825.18,562.53"/>
    <poly id="building_29" type="building" color="200,200,200" fill="true" layer="2" shape="3237.02,1325.65 3249.50,1329.62 3259.89,1332.89 3263.65,1321.88 3252.33,1317.46 3240.33,1313.72 3232.92,1313.45 3229.64,1322.17 3237.02,1325.65"/>
    <poly id="building_30" type="building" color="200,200,200" fill="true" layer="2" shape="3144.62,1447.73 3146.46,1437.49 3108.43,1433.81 3108.06,1444.34 3144.62,1447.73"/>
    <poly id="building_31" type="building" color="200,200,200" fill="true" layer="2" shape="2956.34,1895.30 2966.47,1899.48 2988.88,1852.77 2978.73,1848.03 2956.34,1895.30"/>
    <poly id="building_32" type="building" color="200,200,200" fill="true" layer="2" shape="2958.70,1873.09 2956.24,1863.21 2935.54,1867.78 2915.03,1873.08 2917.98,1883.56 2938.49,1878.06 2958.70,1873.09"/>
    <poly id="building_33" type="building" color="200,200,200" fill="true" layer="2" shape="2916.88,1911.40 2925.27,1911.33 2925.23,1883.49 2916.84,1884.11 2916.88,1911.40"/>
    <poly id="building_34" type="building" color="200,200,200" fill="true" layer="2" shape="2902.29,1925.58 2912.09,1926.76 2915.18,1901.51 2905.38,1900.32 2902.29,1925.58"/>
    <poly id="building_35" type="building" color="200,200,200" fill="true" layer="2" shape="2915.40,1927.00 2947.96,1927.73 2948.20,1917.00 2915.64,1916.27 2915.40,1927.00"/>
    <poly id="education_36" type="education" color="255,255,228" fill="true" layer="-1" shape="2899.52,1926.80 2916.82,1928.38 2941.07,1928.88 2958.17,1929.89 2962.36,1916.84 2969.03,1899.88 2975.30,1886.84 2982.51,1872.68 2991.82,1853.68 2993.35,1847.53 2978.92,1838.48 2955.56,1847.52 2940.88,1851.37 2922.07,1856.50 2910.59,1858.13 2911.25,1876.61 2908.04,1878.66 2903.99,1898.61 2901.66,1912.98 2899.52,1926.80"/>
    <poly id="building_37" type="building" color="200,200,200" fill="true" layer="2" shape="3230.34,551.29 3236.54,551.61 3236.58,541.93 3236.34,532.83 3230.13,533.10 3230.09,542.19 3230.34,551.29"/>
    <poly id="building_38" type="building" color="200,200,200" fill="true" layer="2" shape="3293.48,1061.35 3302.57,1061.40 3315.10,1061.02 3315.12,1056.43 3303.05,1056.22 3293.50,1056.46 3293.48,1061.35"/>
    <poly id="building_39" type="building" color="200,200,200" fill="true" layer="2" shape="3273.66,1070.05 3293.58,1072.16 3306.83,1075.04 3318.44,1077.46 3333.10,1081.11 3333.96,1073.55 3334.59,1065.55 3335.07,1059.34 3340.44,1058.78 3341.07,1051.08 3335.41,1050.46 3335.78,1037.44 3330.26,1037.11 3330.14,1031.18 3320.16,1031.13 3320.12,1038.09 3304.78,1037.87 3291.97,1037.81 3274.93,1038.10 3274.68,1045.94 3274.24,1058.52 3273.66,1070.05"/>
    <poly id="building_40" type="building" color="200,200,200" fill="true" layer="2" shape="2911.29,1948.87 2938.87,1951.10 2940.16,1935.34 2912.48,1933.11 2910.62,1936.03 2909.83,1945.57 2911.29,1948.87"/>
    <poly id="building_41" type="building" color="200,200,200" fill="true" layer="2" shape="2927.40,2177.61 2938.23,2178.41 2940.28,2151.36 2930.55,2150.63 2929.36,2166.32 2916.82,2165.39 2916.18,2173.76 2927.63,2174.62 2927.40,2177.61"/>
    <poly id="building_42" type="building" color="200,200,200" fill="true" layer="2" shape="3355.03,1349.46 3364.79,1356.63 3370.07,1349.54 3360.31,1342.36 3355.03,1349.46"/>
    <poly id="building_43" type="building" color="200,200,200" fill="true" layer="2" shape="3096.04,1402.04 3097.68,1385.17 3153.44,1390.53 3151.79,1407.40 3096.04,1402.04"/>
    <poly id="building_44" type="building" color="200,200,200" fill="true" layer="2" shape="3448.65,1385.93 3463.12,1379.98 3459.25,1370.68 3444.77,1376.62 3448.65,1385.93"/>
    <poly id="building_45" type="building" color="200,200,200" fill="true" layer="2" shape="3138.58,1778.09 3149.11,1778.50 3150.07,1763.55 3139.16,1763.49 3138.58,1778.09"/>
    <poly id="building_46" type="building" color="200,200,200" fill="true" layer="2" shape="3104.45,1783.36 3122.84,1783.40 3122.79,1769.85 3104.33,1769.51 3104.27,1773.58 3101.89,1776.19 3104.53,1778.57 3104.45,1783.36"/>
    <poly id="water_47" type="water" color="170,211,223" fill="true" layer="0" shape="3401.94,1597.32 3398.16,1575.80 3421.50,1571.76 3425.29,1593.27 3401.94,1597.32"/>
    <poly id="building_48" type="building" color="200,200,200" fill="true" layer="2" shape="3042.29,1796.74 3053.87,1768.71 3079.55,1779.17 3067.97,1807.20 3042.29,1796.74"/>
    <poly id="building_49" type="building" color="200,200,200" fill="true" layer="2" shape="3307.53,1318.73 3324.94,1325.94 3332.06,1308.96 3314.66,1301.75 3307.53,1318.73"/>
    <poly id="building_50" type="building" color="200,200,200" fill="true" layer="2" shape="3383.21,1383.28 3389.91,1373.43 3398.68,1379.32 3391.96,1389.18 3383.21,1383.28"/>
    <poly id="building_51" type="building" color="200,200,200" fill="true" layer="2" shape="2919.43,2380.06 2928.72,2380.80 2926.27,2411.38 2916.98,2410.64 2919.43,2380.06"/>
    <poly id="building_52" type="building" color="200,200,200" fill="true" layer="2" shape="2884.23,2398.35 2894.55,2401.34 2900.59,2374.97 2890.57,2372.87 2884.23,2398.35"/>
    <poly id="building_53" type="building" color="200,200,200" fill="true" layer="2" shape="2881.71,2406.80 2883.29,2400.50 2914.36,2408.21 2912.78,2414.52 2881.71,2406.80"/>
    <poly id="building_54" type="building" color="200,200,200" fill="true" layer="2" shape="2909.18,2404.73 2915.68,2405.16 2917.32,2380.11 2910.83,2379.68 2909.18,2404.73"/>
    <poly id="education_55" type="education" color="255,255,228" fill="true" layer="-1" shape="2875.92,2406.81 2881.04,2387.48 2887.05,2367.28 2900.91,2370.28 2922.46,2371.86 2931.31,2371.60 2930.65,2387.44 2929.68,2402.69 2929.00,2419.40 2914.55,2416.69 2904.82,2414.59 2890.95,2411.59 2875.92,2406.81"/>
    <poly id="building_56" type="building" color="200,200,200" fill="true" layer="2" shape="3203.34,1289.95 3211.93,1292.85 3224.90,1254.82 3216.33,1251.93 3203.34,1289.95"/>
    <poly id="building_57" type="building" color="200,200,200" fill="true" layer="2" shape="2901.99,2357.51 2910.44,2358.64 2911.80,2348.60 2903.35,2347.47 2901.99,2357.51"/>
    <poly id="building_58" type="building" color="200,200,200" fill="true" layer="2" shape="3124.73,1426.09 3138.00,1427.92 3154.23,1429.77 3157.52,1420.40 3160.22,1412.20 3141.62,1411.52 3141.02,1414.45 3125.67,1412.90 3125.05,1419.06 3124.73,1426.09"/>
    <poly id="building_59" type="building" color="200,200,200" fill="true" layer="2" shape="1818.26,2026.56 1819.05,2006.93 1836.67,2007.08 1835.57,2027.52 1829.58,2027.31 1829.47,2030.45 1824.93,2030.30 1825.06,2026.79 1818.26,2026.56"/>
    <poly id="building_60" type="building" color="200,200,200" fill="true" layer="2" shape="1805.16,2043.27 1824.92,2043.82 1833.98,2042.25 1839.94,2040.06 1845.15,2036.69 1846.65,2034.49 1847.12,2027.84 1847.62,2018.84 1847.51,2010.29 1847.99,2003.36 1847.87,1997.45 1848.18,1994.50 1838.23,1994.01 1818.77,1993.91 1806.00,1994.14 1805.76,2010.81 1805.73,2016.86 1802.46,2017.00 1802.28,2025.71 1805.85,2025.57 1805.35,2034.13 1805.16,2043.27"/>
    <poly id="building_61" type="building" color="200,200,200" fill="true" layer="2" shape="3142.15,2216.38 3153.46,2203.19 3182.92,2228.16 3171.62,2241.34 3142.15,2216.38"/>
    <poly id="building_62" type="building" color="200,200,200" fill="true" layer="2" shape="3122.23,2182.36 3138.32,2198.65 3156.67,2180.23 3152.33,2174.34 3139.41,2186.95 3128.67,2176.09 3122.23,2182.36"/>
    <poly id="building_63" type="building" color="200,200,200" fill="true" layer="2" shape="3153.65,2172.52 3157.08,2178.19 3169.92,2170.39 3160.26,2150.96 3153.33,2155.37 3160.58,2168.52 3153.65,2172.52"/>
    <poly id="building_64" type="building" color="200,200,200" fill="true" layer="2" shape="3136.81,2172.20 3142.25,2167.87 3148.02,2175.68 3142.63,2179.43 3136.81,2172.20"/>
    <poly id="building_65" type="building" color="200,200,200" fill="true" layer="2" shape="3183.82,2149.43 3196.46,2141.06 3185.24,2124.33 3180.48,2127.48 3172.60,2132.68 3183.82,2149.43"/>
    <poly id="building_66" type="building" color="200,200,200" fill="true" layer="2" shape="3168.54,2189.34 3178.32,2200.73 3194.70,2191.25 3185.36,2178.53 3168.54,2189.34"/>
    <poly id="building_67" type="building" color="200,200,200" fill="true" layer="2" shape="3316.48,2264.31 3336.19,2258.86 3350.53,2254.48 3353.44,2252.27 3372.29,2241.26 3367.87,2231.02 3363.67,2221.00 3342.17,2226.88 3343.91,2235.33 3310.08,2244.72 3316.48,2264.31"/>
    <poly id="building_68" type="building" color="200,200,200" fill="true" layer="2" shape="3393.49,1357.69 3398.70,1362.29 3406.14,1353.95 3400.93,1349.35 3393.49,1357.69"/>
    <poly id="building_69" type="building" color="200,200,200" fill="true" layer="2" shape="3047.51,1498.25 3112.64,1516.33 3109.82,1527.05 3045.20,1510.30 3047.51,1498.25"/>
    <poly id="building_70" type="building" color="200,200,200" fill="true" layer="2" shape="3244.57,1354.55 3246.44,1346.22 3252.30,1347.51 3252.81,1345.26 3260.92,1347.05 3258.55,1357.64 3244.57,1354.55"/>
    <poly id="building_71" type="building" color="200,200,200" fill="true" layer="2" shape="2997.69,2545.03 3004.27,2551.15 3017.70,2536.91 2998.62,2519.15 2991.22,2527.00 2995.08,2533.52 2999.64,2538.16 2999.12,2540.95 2999.87,2542.72 2997.69,2545.03"/>
    <poly id="residential_72" type="residential" color="220,220,220" fill="true" layer="-1" shape="3758.09,654.98 3799.13,616.38 3782.45,577.76 3731.62,561.33 3688.77,548.77 3631.04,549.07 3607.86,568.07 3614.27,587.80 3679.64,596.95 3699.71,609.99 3726.50,638.35 3758.09,654.98"/>
    <poly id="building_73" type="building" color="200,200,200" fill="true" layer="2" shape="3583.60,2155.55 3587.50,2152.18 3589.64,2156.91 3586.99,2159.05 3583.60,2155.55"/>
    <poly id="building_74" type="building" color="200,200,200" fill="true" layer="2" shape="3818.63,2227.44 3818.72,2219.14 3828.95,2219.19 3829.09,2227.99 3818.63,2227.44"/>
    <poly id="building_75" type="building" color="200,200,200" fill="true" layer="2" shape="3298.44,1600.85 3298.20,1606.19 3304.68,1606.11 3304.71,1600.33 3298.44,1600.85"/>
    <poly id="building_76" type="building" color="200,200,200" fill="true" layer="2" shape="3329.22,1550.32 3340.19,1550.74 3342.87,1534.31 3329.30,1534.42 3329.22,1550.32"/>
    <poly id="building_77" type="building" color="200,200,200" fill="true" layer="2" shape="2963.05,1558.32 2973.04,1559.39 2975.76,1546.03 2964.14,1544.95 2963.05,1558.32"/>
    <poly id="park_78" type="park" color="200,250,200" fill="true" layer="-1" shape="2657.40,2181.80 2670.93,2190.96 2677.48,2181.02 2663.64,2172.44 2657.40,2181.80"/>
</additional>
