<?xml version="1.0" encoding="UTF-8"?>

<!-- generated on 2026-02-13T03:08:13.062408+05:30 by Eclipse SUMO netconvert 1.25.0
<netconvertConfiguration xmlns:xsi="http://www.w3.org/2001/XMLSchema-instance" xsi:noNamespaceSchemaLocation="http://sumo.dlr.de/xsd/netconvertConfiguration.xsd">

    <input>
        <osm-files value="map.osm"/>
    </input>

    <output>
        <output-file value="area.net.xml"/>
    </output>

    <projection>
        <proj.utm value="true"/>
    </projection>

    <processing>
        <geometry.remove value="true"/>
        <roundabouts.guess value="true"/>
    </processing>

    <ramp_guessing>
        <ramps.guess value="true"/>
    </ramp_guessing>

    <junctions>
        <no-turnarounds value="true"/>
    </junctions>

</netconvertConfiguration>
-->

<net version="1.20" junctionCornerDetail="5" limitTurnSpeed="5.50" xmlns:xsi="http://www.w3.org/2001/XMLSchema-instance" xsi:noNamespaceSchemaLocation="http://sumo.dlr.de/xsd/net_file.xsd">

    <location netOffset="-716957.53,-933900.93" convBoundary="0.00,0.00,5717.05,4549.67" origBoundary="76.970769,8.443461,77.030880,8.576337" projParameter="+proj=utm +zone=43 +ellps=WGS84 +datum=WGS84 +units=m +no_defs"/>

    <type id="highway.primary" priority="12" numLanes="2" speed="27.78" disallow="tram rail_urban rail rail_electric rail_fast ship container cable_car subway aircraft wheelchair scooter drone" oneway="0"/>
    <type id="highway.primary_link" priority="7" numLanes="1" speed="22.22" disallow="tram rail_urban rail rail_electric rail_fast ship container cable_car subway aircraft wheelchair scooter drone" oneway="0"/>
    <type id="highway.residential" priority="3" numLanes="1" speed="13.89" disallow="tram rail_urban rail rail_electric rail_fast ship container cable_car subway aircraft wheelchair scooter drone" oneway="0"/>
    <type id="highway.secondary" priority="11" numLanes="1" speed="27.78" disallow="tram rail_urban rail rail_electric rail_fast ship container cable_car subway aircraft wheelchair scooter drone" oneway="0"/>
    <type id="highway.service" priority="1" numLanes="1" speed="5.56" allow="pedestrian delivery bicycle" oneway="0"/>
    <type id="highway.tertiary" priority="10" numLanes="1" speed="22.22" disallow="tram rail_urban rail rail_electric rail_fast ship container cable_car subway aircraft wheelchair scooter drone" oneway="0"/>
    <type id="highway.tertiary_link" priority="5" numLanes="1" speed="22.22" disallow="tram rail_urban rail rail_electric rail_fast ship container cable_car subway aircraft wheelchair scooter drone" oneway="0"/>
    <type id="highway.unclassified" priority="4" numLanes="1" speed="13.89" disallow="tram rail_urban rail rail_electric rail_fast ship container cable_car subway aircraft wheelchair scooter drone" oneway="0"/>
    <type id="railway.rail" priority="20" numLanes="1" speed="44.44" allow="rail" oneway="1"/>

    <edge id=":10168276772_0" function="internal">
        <lane id=":10168276772_0_0" index="0" disallow="tram rail_urban rail rail_electric rail_fast ship container cable_car subway aircraft wheelchair scooter drone" speed="5.56" length="14.48" shape="1544.71,3172.61 1539.39,3186.09"/>
    </edge>
    <edge id=":10168276772_1" function="internal">
        <lane id=":10168276772_1_0" index="0" disallow="tram rail_urban rail rail_electric rail_fast ship container cable_car subway aircraft wheelchair scooter drone" speed="8.59" length="3.83" shape="1544.71,3172.61 1542.85,3175.78 1542.72,3175.88"/>
    </edge>
    <edge id=":10168276772_6" function="internal">
        <lane id=":10168276772_6_0" index="0" disallow="tram rail_urban rail rail_electric rail_fast ship container cable_car subway aircraft wheelchair scooter drone" speed="8.59" length="10.65" shape="1542.72,3175.88 1540.25,3177.77 1536.91,3178.57 1532.83,3178.19"/>
    </edge>
    <edge id=":10168276772_2" function="internal">
        <lane id=":10168276772_2_0" index="0" disallow="tram rail_urban rail rail_electric rail_fast ship container cable_car subway aircraft wheelchair scooter drone" speed="7.20" length="9.90" shape="1533.51,3175.06 1536.37,3175.35 1538.69,3174.84 1540.48,3173.54 1541.73,3171.44"/>
    </edge>
    <edge id=":10168276772_3" function="internal">
        <lane id=":10168276772_3_0" index="0" disallow="tram rail_urban rail rail_electric rail_fast ship container cable_car subway aircraft wheelchair scooter drone" speed="7.74" length="14.84" shape="1533.51,3175.06 1537.41,3176.52 1539.69,3178.85 1540.35,3182.03 1539.39,3186.09"/>
    </edge>
    <edge id=":10168276772_4" function="internal">
        <lane id=":10168276772_4_0" index="0" disallow="tram rail_urban rail rail_electric rail_fast ship container cable_car subway aircraft wheelchair scooter drone" speed="6.19" length="9.05" shape="1536.41,3184.91 1537.00,3182.44 1536.60,3180.50 1535.20,3179.08 1532.83,3178.19"/>
    </edge>
    <edge id=":10168276772_5" function="internal">
        <lane id=":10168276772_5_0" index="0" disallow="tram rail_urban rail rail_electric rail_fast ship container cable_car subway aircraft wheelchair scooter drone" speed="5.56" length="14.48" shape="1536.41,3184.91 1541.73,3171.44"/>
    </edge>
    <edge id=":10936666419_0" function="internal">
        <lane id=":10936666419_0_0" index="0" disallow="tram rail_urban rail rail_electric rail_fast ship container cable_car subway aircraft wheelchair scooter drone" speed="27.78" length="7.74" shape="720.35,3283.76 718.70,3285.51 717.62,3286.75 716.48,3287.94 714.67,3289.51"/>
        <lane id=":10936666419_0_1" index="1" disallow="tram rail_urban rail rail_electric rail_fast ship container cable_car subway aircraft wheelchair scooter drone" speed="27.78" length="7.74" shape="718.06,3281.52 716.49,3283.20 715.46,3284.39 714.37,3285.52 712.64,3287.03"/>
        <lane id=":10936666419_0_2" index="2" disallow="tram rail_urban rail rail_electric rail_fast ship container cable_car subway aircraft wheelchair scooter drone" speed="27.78" length="7.74" shape="715.78,3279.27 714.29,3280.88 713.30,3282.02 712.27,3283.11 710.62,3284.55"/>
    </edge>
    <edge id=":10936666419_3" function="internal">
        <lane id=":10936666419_3_0" index="0" disallow="tram rail_urban rail rail_electric rail_fast ship container cable_car subway aircraft wheelchair scooter drone" speed="9.72" length="6.24" shape="712.40,3277.38 711.83,3279.08 711.10,3280.11 710.07,3280.94 708.60,3282.07"/>
    </edge>
    <edge id=":10936666422_0" function="internal">
        <lane id=":10936666422_0_0" index="0" disallow="tram rail_urban rail rail_electric rail_fast ship container cable_car subway aircraft wheelchair scooter drone" speed="5.54" length="11.29" shape="722.06,3253.82 719.52,3250.89 717.88,3250.23 717.14,3251.83 717.29,3255.71"/>
    </edge>
    <edge id=":10936666422_1" function="internal">
        <lane id=":10936666422_1_0" index="0" disallow="tram rail_urban rail rail_electric rail_fast ship container cable_car subway aircraft wheelchair scooter drone" speed="27.78" length="15.25" shape="722.06,3253.82 713.04,3241.52"/>
    </edge>
    <edge id=":10936666422_2" function="internal">
        <lane id=":10936666422_2_0" index="0" disallow="tram rail_urban rail rail_electric rail_fast ship container cable_car subway aircraft wheelchair scooter drone" speed="5.71" length="11.52" shape="726.78,3245.97 723.47,3245.34 722.00,3246.12 722.39,3248.31 724.64,3251.93"/>
    </edge>
    <edge id=":10936666422_3" function="internal">
        <lane id=":10936666422_3_0" index="0" disallow="tram rail_urban rail rail_electric rail_fast ship container cable_car subway aircraft wheelchair scooter drone" speed="7.77" length="17.65" shape="726.78,3245.97 722.04,3245.26 718.87,3246.65 717.29,3250.13 717.29,3255.71"/>
    </edge>
    <edge id=":10936666422_4" function="internal">
        <lane id=":10936666422_4_0" index="0" disallow="tram rail_urban rail rail_electric rail_fast ship container cable_car subway aircraft wheelchair scooter drone" speed="14.97" length="14.76" shape="726.78,3245.97 723.04,3245.21 719.23,3244.69 715.76,3243.71 713.04,3241.52"/>
    </edge>
    <edge id=":10936666422_5" function="internal">
        <lane id=":10936666422_5_0" index="0" disallow="tram rail_urban rail rail_electric rail_fast ship container cable_car subway aircraft wheelchair scooter drone" speed="27.78" length="15.25" shape="715.62,3239.63 724.64,3251.93"/>
    </edge>
    <edge id=":10936666422_6" function="internal">
        <lane id=":10936666422_6_0" index="0" disallow="tram rail_urban rail rail_electric rail_fast ship container cable_car subway aircraft wheelchair scooter drone" speed="19.01" length="2.97" shape="715.62,3239.63 716.74,3242.38"/>
    </edge>
    <edge id=":10936666422_7" function="internal">
        <lane id=":10936666422_7_0" index="0" disallow="tram rail_urban rail rail_electric rail_fast ship container cable_car subway aircraft wheelchair scooter drone" speed="19.01" length="13.40" shape="716.74,3242.38 717.05,3243.15 717.34,3247.32 717.19,3251.67 717.29,3255.71"/>
    </edge>
    <edge id=":10936666425_0" function="internal">
        <lane id=":10936666425_0_0" index="0" disallow="tram rail_urban rail rail_electric rail_fast ship container cable_car subway aircraft wheelchair scooter drone" speed="27.78" length="14.58" shape="762.24,3246.66 750.93,3255.85"/>
        <lane id=":10936666425_0_1" index="1" disallow="tram rail_urban rail rail_electric rail_fast ship container cable_car subway aircraft wheelchair scooter drone" speed="27.78" length="14.58" shape="760.22,3244.17 748.91,3253.37"/>
        <lane id=":10936666425_0_2" index="2" disallow="tram rail_urban rail rail_electric rail_fast ship container cable_car subway aircraft wheelchair scooter drone" speed="27.78" length="14.58" shape="758.21,3241.69 746.89,3250.88"/>
    </edge>
    <edge id=":10936666425_3" function="internal">
        <lane id=":10936666425_3_0" index="0" disallow="tram rail_urban rail rail_electric rail_fast ship container cable_car subway aircraft wheelchair scooter drone" speed="18.10" length="14.45" shape="758.21,3241.69 754.48,3244.17 751.27,3245.32 748.17,3245.79 744.77,3246.24"/>
    </edge>
    <edge id=":10936666447_0" function="internal">
        <lane id=":10936666447_0_0" index="0" disallow="tram rail_urban rail rail_electric rail_fast ship container cable_car subway aircraft wheelchair scooter drone" speed="27.78" length="9.43" shape="1011.46,3045.67 1003.87,3051.28"/>
        <lane id=":10936666447_0_1" index="1" disallow="tram rail_urban rail rail_electric rail_fast ship container cable_car subway aircraft wheelchair scooter drone" speed="27.78" length="9.43" shape="1009.56,3043.10 1001.97,3048.71"/>
        <lane id=":10936666447_0_2" index="2" disallow="tram rail_urban rail rail_electric rail_fast ship container cable_car subway aircraft wheelchair scooter drone" speed="27.78" length="9.43" shape="1007.65,3040.53 1000.07,3046.14"/>
    </edge>
    <edge id=":10936666447_3" function="internal">
        <lane id=":10936666447_3_0" index="0" allow="pedestrian delivery bicycle" speed="5.98" length="8.04" shape="1007.65,3040.53 1005.26,3042.02 1003.29,3042.65 1001.73,3042.41 1000.61,3041.30"/>
    </edge>
    <edge id=":10936666447_4" function="internal">
        <lane id=":10936666447_4_0" index="0" allow="pedestrian delivery bicycle" speed="7.13" length="10.21" shape="1003.35,3039.66 1004.51,3042.32 1004.67,3044.71 1003.82,3046.84 1001.97,3048.71"/>
        <lane id=":10936666447_4_1" index="1" allow="pedestrian delivery bicycle" speed="6.36" length="7.94" shape="1003.35,3039.66 1003.78,3041.12 1003.37,3042.69 1002.13,3044.36 1000.07,3046.14"/>
    </edge>
    <edge id=":11080736311_0" function="internal">
        <lane id=":11080736311_0_0" index="0" disallow="tram rail_urban rail rail_electric rail_fast ship container cable_car subway aircraft wheelchair scooter drone" speed="27.78" length="10.22" shape="597.34,3085.34 591.59,3076.90"/>
    </edge>
    <edge id=":11080736311_1" function="internal">
        <lane id=":11080736311_1_0" index="0" disallow="tram rail_urban rail rail_electric rail_fast ship container cable_car subway aircraft wheelchair scooter drone" speed="7.05" length="2.20" shape="597.34,3085.34 596.62,3083.27"/>
    </edge>
    <edge id=":11080736311_6" function="internal">
        <lane id=":11080736311_6_0" index="0" disallow="tram rail_urban rail rail_electric rail_fast ship container cable_car subway aircraft wheelchair scooter drone" speed="7.05" length="9.15" shape="596.62,3083.27 597.23,3081.13 599.17,3078.92 602.44,3076.64"/>
    </edge>
    <edge id=":11080736311_2" function="internal">
        <lane id=":11080736311_2_0" index="0" disallow="tram rail_urban rail rail_electric rail_fast ship container cable_car subway aircraft wheelchair scooter drone" speed="5.38" length="6.15" shape="604.06,3079.40 601.96,3080.74 600.58,3081.88 599.92,3082.81 599.99,3083.54"/>
    </edge>
    <edge id=":11080736311_3" function="internal">
        <lane id=":11080736311_3_0" index="0" disallow="tram rail_urban rail rail_electric rail_fast ship container cable_car subway aircraft wheelchair scooter drone" speed="8.22" length="14.30" shape="604.06,3079.40 600.40,3080.94 597.10,3081.03 594.16,3079.69 591.59,3076.90"/>
    </edge>
    <edge id=":11080736311_4" function="internal">
        <lane id=":11080736311_4_0" index="0" disallow="tram rail_urban rail rail_electric rail_fast ship container cable_car subway aircraft wheelchair scooter drone" speed="6.77" length="9.38" shape="594.24,3075.10 595.91,3076.90 597.83,3077.75 600.01,3077.67 602.44,3076.64"/>
    </edge>
    <edge id=":11080736311_5" function="internal">
        <lane id=":11080736311_5_0" index="0" disallow="tram rail_urban rail rail_electric rail_fast ship container cable_car subway aircraft wheelchair scooter drone" speed="27.78" length="10.22" shape="594.24,3075.10 599.99,3083.54"/>
    </edge>
    <edge id=":11080736317_0" function="internal">
        <lane id=":11080736317_0_0" index="0" disallow="tram rail_urban rail rail_electric rail_fast ship container cable_car subway aircraft wheelchair scooter drone" speed="9.12" length="10.82" shape="667.52,2988.33 666.17,2984.58 664.84,2981.81 663.52,2980.02 662.21,2979.20"/>
    </edge>
    <edge id=":11080736317_1" function="internal">
        <lane id=":11080736317_1_0" index="0" disallow="tram rail_urban rail rail_electric rail_fast ship container cable_car subway aircraft wheelchair scooter drone" speed="7.39" length="17.08" shape="667.52,2988.33 666.60,2983.24 667.69,2980.05 670.81,2978.77 675.94,2979.40"/>
    </edge>
    <edge id=":11080736317_2" function="internal">
        <lane id=":11080736317_2_0" index="0" disallow="tram rail_urban rail rail_electric rail_fast ship container cable_car subway aircraft wheelchair scooter drone" speed="5.63" length="9.28" shape="675.15,2982.50 672.36,2982.16 670.66,2982.85 670.07,2984.58 670.57,2987.35"/>
    </edge>
    <edge id=":11080736317_3" function="internal">
        <lane id=":11080736317_3_0" index="0" disallow="tram rail_urban rail rail_electric rail_fast ship container cable_car subway aircraft wheelchair scooter drone" speed="13.89" length="13.35" shape="675.15,2982.50 662.21,2979.20"/>
    </edge>
    <edge id=":11080736317_4" function="internal">
        <lane id=":11080736317_4_0" index="0" disallow="tram rail_urban rail rail_electric rail_fast ship container cable_car subway aircraft wheelchair scooter drone" speed="13.89" length="13.38" shape="662.98,2976.10 675.94,2979.40"/>
    </edge>
    <edge id=":11080736317_5" function="internal">
        <lane id=":11080736317_5_0" index="0" disallow="tram rail_urban rail rail_electric rail_fast ship container cable_car subway aircraft wheelchair scooter drone" speed="10.32" length="2.58" shape="662.98,2976.10 665.08,2977.20 665.21,2977.36"/>
    </edge>
    <edge id=":11080736317_6" function="internal">
        <lane id=":11080736317_6_0" index="0" disallow="tram rail_urban rail rail_electric rail_fast ship container cable_car subway aircraft wheelchair scooter drone" speed="10.32" length="11.45" shape="665.21,2977.36 667.04,2979.45 668.87,2982.83 670.57,2987.35"/>
    </edge>
    <edge id=":11092876469_0" function="internal">
        <lane id=":11092876469_0_0" index="0" disallow="tram rail_urban rail rail_electric rail_fast ship container cable_car subway aircraft wheelchair scooter drone" speed="13.89" length="15.09" shape="664.36,2750.30 660.59,2750.41 656.81,2750.39 653.03,2750.24 649.28,2749.96"/>
    </edge>
    <edge id=":11092876469_1" function="internal">
        <lane id=":11092876469_1_0" index="0" disallow="tram rail_urban rail rail_electric rail_fast ship container cable_car subway aircraft wheelchair scooter drone" speed="7.76" length="4.35" shape="664.36,2750.30 660.23,2749.89 660.06,2749.79"/>
    </edge>
    <edge id=":11092876469_6" function="internal">
        <lane id=":11092876469_6_0" index="0" disallow="tram rail_urban rail rail_electric rail_fast ship container cable_car subway aircraft wheelchair scooter drone" speed="7.76" length="10.45" shape="660.06,2749.79 657.43,2748.24 655.95,2745.34 655.79,2741.20"/>
    </edge>
    <edge id=":11092876469_2" function="internal">
        <lane id=":11092876469_2_0" index="0" disallow="tram rail_urban rail rail_electric rail_fast ship container cable_car subway aircraft wheelchair scooter drone" speed="6.20" length="9.05" shape="658.98,2741.54 659.07,2744.07 659.98,2745.85 661.69,2746.86 664.21,2747.10"/>
    </edge>
    <edge id=":11092876469_3" function="internal">
        <lane id=":11092876469_3_0" index="0" disallow="tram rail_urban rail rail_electric rail_fast ship container cable_car subway aircraft wheelchair scooter drone" speed="8.14" length="14.61" shape="658.98,2741.54 658.00,2745.54 656.06,2748.27 653.15,2749.74 649.28,2749.96"/>
    </edge>
    <edge id=":11092876469_4" function="internal">
        <lane id=":11092876469_4_0" index="0" disallow="tram rail_urban rail rail_electric rail_fast ship container cable_car subway aircraft wheelchair scooter drone" speed="6.67" length="9.48" shape="649.59,2746.77 652.06,2746.62 653.92,2745.65 655.16,2743.84 655.79,2741.20"/>
    </edge>
    <edge id=":11092876469_5" function="internal">
        <lane id=":11092876469_5_0" index="0" disallow="tram rail_urban rail rail_electric rail_fast ship container cable_car subway aircraft wheelchair scooter drone" speed="13.89" length="14.64" shape="649.59,2746.77 653.27,2747.06 656.89,2747.20 660.52,2747.21 664.21,2747.10"/>
    </edge>
    <edge id=":11221812697_0" function="internal">
        <lane id=":11221812697_0_0" index="0" allow="pedestrian delivery bicycle" speed="5.00" length="5.04" shape="813.02,2917.12 812.65,2915.78 811.94,2914.89 810.90,2914.46 809.51,2914.48"/>
    </edge>
    <edge id=":11221812697_1" function="internal">
        <lane id=":11221812697_1_0" index="0" allow="pedestrian delivery bicycle" speed="5.56" length="10.13" shape="813.02,2917.12 813.05,2914.30 813.92,2912.14 815.63,2910.62 818.18,2909.76"/>
    </edge>
    <edge id=":11221812697_2" function="internal">
        <lane id=":11221812697_2_0" index="0" allow="pedestrian delivery bicycle" speed="5.20" length="5.17" shape="818.75,2912.91 817.48,2913.35 816.63,2914.13 816.20,2915.25 816.19,2916.72"/>
    </edge>
    <edge id=":11221812697_3" function="internal">
        <lane id=":11221812697_3_0" index="0" allow="pedestrian delivery bicycle" speed="5.56" length="9.37" shape="818.75,2912.91 809.51,2914.48"/>
    </edge>
    <edge id=":11221812697_4" function="internal">
        <lane id=":11221812697_4_0" index="0" allow="pedestrian delivery bicycle" speed="5.56" length="9.31" shape="809.00,2911.32 818.18,2909.76"/>
    </edge>
    <edge id=":11221812697_5" function="internal">
        <lane id=":11221812697_5_0" index="0" allow="pedestrian delivery bicycle" speed="5.56" length="10.34" shape="809.00,2911.32 811.85,2911.28 814.00,2912.16 815.44,2913.97 816.19,2916.72"/>
    </edge>
    <edge id=":11221812700_0" function="internal">
        <lane id=":11221812700_0_0" index="0" allow="pedestrian delivery bicycle" speed="5.26" length="5.27" shape="850.62,3082.37 849.57,3081.53 848.44,3081.23 847.23,3081.48 845.93,3082.27"/>
    </edge>
    <edge id=":11221812700_1" function="internal">
        <lane id=":11221812700_1_0" index="0" allow="pedestrian delivery bicycle" speed="5.56" length="9.41" shape="850.62,3082.37 844.31,3075.39"/>
    </edge>
    <edge id=":11221812700_2" function="internal">
        <lane id=":11221812700_2_0" index="0" allow="pedestrian delivery bicycle" speed="5.56" length="9.41" shape="846.68,3073.24 852.99,3080.22"/>
    </edge>
    <edge id=":11221812700_3" function="internal">
        <lane id=":11221812700_3_0" index="0" allow="pedestrian delivery bicycle" speed="5.56" length="10.49" shape="846.68,3073.24 848.30,3075.65 848.71,3077.95 847.93,3080.16 845.93,3082.27"/>
    </edge>
    <edge id=":11221812700_4" function="internal">
        <lane id=":11221812700_4_0" index="0" allow="pedestrian delivery bicycle" speed="4.97" length="5.08" shape="843.94,3079.76 844.91,3078.74 845.29,3077.67 845.09,3076.55 844.31,3075.39"/>
    </edge>
    <edge id=":11221812700_5" function="internal">
        <lane id=":11221812700_5_0" index="0" allow="pedestrian delivery bicycle" speed="5.56" length="10.19" shape="843.94,3079.76 846.40,3078.29 848.72,3077.88 850.92,3078.53 852.99,3080.22"/>
    </edge>
    <edge id=":11221814852_0" function="internal">
        <lane id=":11221814852_0_0" index="0" disallow="tram rail_urban rail rail_electric rail_fast ship container cable_car subway aircraft wheelchair scooter drone" speed="7.93" length="10.39" shape="939.51,3309.71 939.12,3306.76 938.12,3304.42 936.50,3302.69 934.27,3301.57"/>
    </edge>
    <edge id=":11221814852_1" function="internal">
        <lane id=":11221814852_1_0" index="0" disallow="tram rail_urban rail rail_electric rail_fast ship container cable_car subway aircraft wheelchair scooter drone" speed="7.65" length="15.16" shape="939.51,3309.71 940.02,3305.44 941.79,3302.68 944.82,3301.44 949.11,3301.72"/>
    </edge>
    <edge id=":11221814852_2" function="internal">
        <lane id=":11221814852_2_0" index="0" disallow="tram rail_urban rail rail_electric rail_fast ship container cable_car subway aircraft wheelchair scooter drone" speed="6.06" length="9.07" shape="948.45,3304.85 945.89,3304.69 944.07,3305.43 943.01,3307.08 942.71,3309.63"/>
    </edge>
    <edge id=":11221814852_3" function="internal">
        <lane id=":11221814852_3_0" index="0" disallow="tram rail_urban rail rail_electric rail_fast ship container cable_car subway aircraft wheelchair scooter drone" speed="13.89" length="14.57" shape="948.45,3304.85 944.84,3304.12 941.31,3303.40 937.81,3302.58 934.27,3301.57"/>
    </edge>
    <edge id=":11221814852_4" function="internal">
        <lane id=":11221814852_4_0" index="0" disallow="tram rail_urban rail rail_electric rail_fast ship container cable_car subway aircraft wheelchair scooter drone" speed="13.89" length="14.56" shape="934.94,3298.43 938.48,3299.44 941.98,3300.26 945.50,3300.99 949.11,3301.72"/>
    </edge>
    <edge id=":11221814852_5" function="internal">
        <lane id=":11221814852_5_0" index="0" disallow="tram rail_urban rail rail_electric rail_fast ship container cable_car subway aircraft wheelchair scooter drone" speed="9.32" length="3.68" shape="934.94,3298.43 938.26,3300.03"/>
    </edge>
    <edge id=":11221814852_6" function="internal">
        <lane id=":11221814852_6_0" index="0" disallow="tram rail_urban rail rail_electric rail_fast ship container cable_car subway aircraft wheelchair scooter drone" speed="9.32" length="10.97" shape="938.26,3300.03 940.66,3302.43 942.14,3305.63 942.71,3309.63"/>
    </edge>
    <edge id=":11222045528_0" function="internal">
        <lane id=":11222045528_0_0" index="0" disallow="tram rail_urban rail rail_electric rail_fast ship container cable_car subway aircraft wheelchair scooter drone" speed="22.22" length="9.44" shape="1146.11,3018.68 1141.49,3010.45"/>
    </edge>
    <edge id=":11222045528_1" function="internal">
        <lane id=":11222045528_1_0" index="0" allow="pedestrian delivery bicycle" speed="6.78" length="3.36" shape="1146.11,3018.68 1145.04,3015.91 1145.06,3015.52"/>
    </edge>
    <edge id=":11222045528_6" function="internal">
        <lane id=":11222045528_6_0" index="0" allow="pedestrian delivery bicycle" speed="6.78" length="7.33" shape="1145.06,3015.52 1145.17,3013.54 1146.51,3011.58 1149.05,3010.03"/>
    </edge>
    <edge id=":11222045528_2" function="internal">
        <lane id=":11222045528_2_0" index="0" allow="pedestrian delivery bicycle" speed="4.93" length="5.13" shape="1150.31,3012.97 1149.09,3013.71 1148.45,3014.65 1148.39,3015.79 1148.90,3017.12"/>
    </edge>
    <edge id=":11222045528_3" function="internal">
        <lane id=":11222045528_3_0" index="0" allow="pedestrian delivery bicycle" speed="7.15" length="10.22" shape="1150.31,3012.97 1147.52,3013.77 1145.12,3013.62 1143.11,3012.51 1141.49,3010.45"/>
    </edge>
    <edge id=":11222045528_4" function="internal">
        <lane id=":11222045528_4_0" index="0" allow="pedestrian delivery bicycle" speed="5.41" length="5.45" shape="1144.29,3008.89 1145.12,3009.92 1146.19,3010.45 1147.50,3010.49 1149.05,3010.03"/>
    </edge>
    <edge id=":11222045528_5" function="internal">
        <lane id=":11222045528_5_0" index="0" disallow="tram rail_urban rail rail_electric rail_fast ship container cable_car subway aircraft wheelchair scooter drone" speed="22.22" length="9.44" shape="1144.29,3008.89 1148.90,3017.12"/>
    </edge>
    <edge id=":11222045533_0" function="internal">
        <lane id=":11222045533_0_0" index="0" disallow="tram rail_urban rail rail_electric rail_fast ship container cable_car subway aircraft wheelchair scooter drone" speed="22.22" length="9.46" shape="1153.25,3036.06 1152.70,3033.30 1152.44,3031.36 1151.97,3029.50 1150.77,3027.00"/>
    </edge>
    <edge id=":11222045533_1" function="internal">
        <lane id=":11222045533_1_0" index="0" allow="pedestrian delivery bicycle" speed="6.96" length="3.60" shape="1153.25,3036.06 1152.97,3033.35 1153.23,3032.51"/>
    </edge>
    <edge id=":11222045533_6" function="internal">
        <lane id=":11222045533_6_0" index="0" allow="pedestrian delivery bicycle" speed="6.96" length="6.58" shape="1153.23,3032.51 1153.65,3031.16 1155.28,3029.49 1157.87,3028.34"/>
    </edge>
    <edge id=":11222045533_2" function="internal">
        <lane id=":11222045533_2_0" index="0" allow="pedestrian delivery bicycle" speed="5.16" length="5.15" shape="1158.76,3031.41 1157.43,3032.00 1156.58,3032.83 1156.22,3033.93 1156.35,3035.28"/>
    </edge>
    <edge id=":11222045533_3" function="internal">
        <lane id=":11222045533_3_0" index="0" allow="pedestrian delivery bicycle" speed="7.41" length="9.92" shape="1158.76,3031.41 1156.48,3031.65 1154.39,3031.00 1152.49,3029.45 1150.77,3027.00"/>
    </edge>
    <edge id=":11222045533_4" function="internal">
        <lane id=":11222045533_4_0" index="0" allow="pedestrian delivery bicycle" speed="5.38" length="4.83" shape="1153.98,3026.18 1154.82,3027.38 1155.74,3028.13 1156.76,3028.45 1157.87,3028.34"/>
    </edge>
    <edge id=":11222045533_5" function="internal">
        <lane id=":11222045533_5_0" index="0" disallow="tram rail_urban rail rail_electric rail_fast ship container cable_car subway aircraft wheelchair scooter drone" speed="22.22" length="9.47" shape="1153.98,3026.18 1155.16,3028.69 1155.60,3030.56 1155.82,3032.51 1156.35,3035.28"/>
    </edge>
    <edge id=":11222114617_0" function="internal">
        <lane id=":11222114617_0_0" index="0" disallow="tram rail_urban rail rail_electric rail_fast ship container cable_car subway aircraft wheelchair scooter drone" speed="7.89" length="10.70" shape="1387.04,3059.25 1383.97,3060.22 1381.71,3061.64 1380.27,3063.53 1379.64,3065.88"/>
    </edge>
    <edge id=":11222114617_1" function="internal">
        <lane id=":11222114617_1_0" index="0" disallow="tram rail_urban rail rail_electric rail_fast ship container cable_car subway aircraft wheelchair scooter drone" speed="7.57" length="15.45" shape="1387.04,3059.25 1382.61,3059.55 1379.58,3058.27 1377.94,3055.42 1377.70,3050.99"/>
    </edge>
    <edge id=":11222114617_2" function="internal">
        <lane id=":11222114617_2_0" index="0" disallow="tram rail_urban rail rail_electric rail_fast ship container cable_car subway aircraft wheelchair scooter drone" speed="5.96" length="9.08" shape="1380.89,3051.26 1381.03,3053.86 1382.00,3055.54 1383.78,3056.29 1386.38,3056.12"/>
    </edge>
    <edge id=":11222114617_3" function="internal">
        <lane id=":11222114617_3_0" index="0" disallow="tram rail_urban rail rail_electric rail_fast ship container cable_car subway aircraft wheelchair scooter drone" speed="13.89" length="14.67" shape="1380.89,3051.26 1379.64,3065.88"/>
    </edge>
    <edge id=":11222114617_4" function="internal">
        <lane id=":11222114617_4_0" index="0" disallow="tram rail_urban rail rail_electric rail_fast ship container cable_car subway aircraft wheelchair scooter drone" speed="13.89" length="14.81" shape="1376.40,3065.59 1377.59,3062.17 1377.82,3058.53 1377.66,3054.76 1377.70,3050.99"/>
    </edge>
    <edge id=":11222114617_5" function="internal">
        <lane id=":11222114617_5_0" index="0" disallow="tram rail_urban rail rail_electric rail_fast ship container cable_car subway aircraft wheelchair scooter drone" speed="11.72" length="1.83" shape="1376.40,3065.59 1377.40,3064.05"/>
    </edge>
    <edge id=":11222114617_6" function="internal">
        <lane id=":11222114617_6_0" index="0" disallow="tram rail_urban rail rail_electric rail_fast ship container cable_car subway aircraft wheelchair scooter drone" speed="11.72" length="12.29" shape="1377.40,3064.05 1378.81,3061.86 1381.27,3059.04 1383.80,3057.12 1386.38,3056.12"/>