<?xml version="1.0" encoding="UTF-8"?>

<!-- generated on 2026-02-12T02:41:47.701177+05:30 by Eclipse SUMO netconvert 1.25.0
<netconvertConfiguration xmlns:xsi="http://www.w3.org/2001/XMLSchema-instance" xsi:noNamespaceSchemaLocation="http://sumo.dlr.de/xsd/netconvertConfiguration.xsd">

    <input>
        <osm-files value="map.osm"/>
    </input>

    <output>
        <output-file value="area.net.xml"/>
    </output>

    <projection>
        <proj.utm value="true"/>
    </projection>

    <processing>
        <geometry.remove value="true"/>
        <roundabouts.guess value="true"/>
    </processing>

    <ramp_guessing>
        <ramps.guess value="true"/>
    </ramp_guessing>

    <junctions>
        <no-turnarounds value="true"/>
    </junctions>

</netconvertConfiguration>
-->

<net version="1.20" junctionCornerDetail="5" limitTurnSpeed="5.50" xmlns:xsi="http://www.w3.org/2001/XMLSchema-instance" xsi:noNamespaceSchemaLocation="http://sumo.dlr.de/xsd/net_file.xsd">

    <location netOffset="-716957.53,-933900.93" convBoundary="0.00,0.00,5717.05,4549.67" origBoundary="76.970769,8.443461,77.030880,8.576337" projParameter="+proj=utm +zone=43 +ellps=WGS84 +datum=WGS84 +units=m +no_defs"/>

    <type id="highway.living_street" priority="2" numLanes="1" speed="2.78" disallow="tram rail_urban rail rail_electric rail_fast ship container cable_car subway aircraft wheelchair scooter drone" oneway="0"/>
    <type id="highway.primary" priority="12" numLanes="2" speed="27.78" disallow="tram rail_urban rail rail_electric rail_fast ship container cable_car subway aircraft wheelchair scooter drone" oneway="0"/>
    <type id="highway.primary_link" priority="7" numLanes="1" speed="22.22" disallow="tram rail_urban rail rail_electric rail_fast ship container cable_car subway aircraft wheelchair scooter drone" oneway="0"/>
    <type id="highway.residential" priority="3" numLanes="1" speed="13.89" disallow="tram rail_urban rail rail_electric rail_fast ship container cable_car subway aircraft wheelchair scooter drone" oneway="0"/>
    <type id="highway.secondary" priority="11" numLanes="1" speed="27.78" disallow="tram rail_urban rail rail_electric rail_fast ship container cable_car subway aircraft wheelchair scooter drone" oneway="0"/>
    <type id="highway.service" priority="1" numLanes="1" speed="5.56" allow="pedestrian delivery bicycle" oneway="0"/>
    <type id="highway.tertiary" priority="10" numLanes="1" speed="22.22" disallow="tram rail_urban rail rail_electric rail_fast ship container cable_car subway aircraft wheelchair scooter drone" oneway="0"/>
    <type id="highway.tertiary_link" priority="5" numLanes="1" speed="22.22" disallow="tram rail_urban rail rail_electric rail_fast ship container cable_car subway aircraft wheelchair scooter drone" oneway="0"/>
    <type id="highway.unclassified" priority="4" numLanes="1" speed="13.89" disallow="tram rail_urban rail rail_electric rail_fast ship container cable_car subway aircraft wheelchair scooter drone" oneway="0"/>
    <type id="railway.rail" priority="20" numLanes="1" speed="44.44" allow="rail" oneway="1"/>

    <edge id=":10168276772_0" function="internal">
        <lane id=":10168276772_0_0" index="0" disallow="tram rail_urban rail rail_electric rail_fast ship container cable_car subway aircraft wheelchair scooter drone" speed="5.56" length="14.48" shape="1544.71,3172.61 1539.39,3186.09"/>
    </edge>
    <edge id=":10168276772_1" function="internal">
        <lane id=":10168276772_1_0" index="0" disallow="tram rail_urban rail rail_electric rail_fast ship container cable_car subway aircraft wheelchair scooter drone" speed="8.59" length="3.83" shape="1544.71,3172.61 1542.85,3175.78 1542.72,3175.88"/>
    </edge>
    <edge id=":10168276772_6" function="internal">
        <lane id=":10168276772_6_0" index="0" disallow="tram rail_urban rail rail_electric rail_fast ship container cable_car subway aircraft wheelchair scooter drone" speed="8.59" length="10.65" shape="1542.72,3175.88 1540.25,3177.77 1536.91,3178.57 1532.83,3178.19"/>
    </edge>
    <edge id=":10168276772_2" function="internal">
        <lane id=":10168276772_2_0" index="0" disallow="tram rail_urban rail rail_electric rail_fast ship container cable_car subway aircraft wheelchair scooter drone" speed="7.20" length="9.90" shape="1533.51,3175.06 1536.37,3175.35 1538.69,3174.84 1540.48,3173.54 1541.73,3171.44"/>
    </edge>
    <edge id=":10168276772_3" function="internal">
        <lane id=":10168276772_3_0" index="0" disallow="tram rail_urban rail rail_electric rail_fast ship container cable_car subway aircraft wheelchair scooter drone" speed="7.74" length="14.84" shape="1533.51,3175.06 1537.41,3176.52 1539.69,3178.85 1540.35,3182.03 1539.39,3186.09"/>
    </edge>
    <edge id=":10168276772_4" function="internal">
        <lane id=":10168276772_4_0" index="0" disallow="tram rail_urban rail rail_electric rail_fast ship container cable_car subway aircraft wheelchair scooter drone" speed="6.19" length="9.05" shape="1536.41,3184.91 1537.00,3182.44 1536.60,3180.50 1535.20,3179.08 1532.83,3178.19"/>
    </edge>
    <edge id=":10168276772_5" function="internal">
        <lane id=":10168276772_5_0" index="0" disallow="tram rail_urban rail rail_electric rail_fast ship container cable_car subway aircraft wheelchair scooter drone" speed="5.56" length="14.48" shape="1536.41,3184.91 1541.73,3171.44"/>
    </edge>
    <edge id=":10936666419_0" function="internal">
        <lane id=":10936666419_0_0" index="0" disallow="tram rail_urban rail rail_electric rail_fast ship container cable_car subway aircraft wheelchair scooter drone" speed="27.78" length="7.74" shape="720.35,3283.76 718.70,3285.51 717.62,3286.75 716.48,3287.94 714.67,3289.51"/>
        <lane id=":10936666419_0_1" index="1" disallow="tram rail_urban rail rail_electric rail_fast ship container cable_car subway aircraft wheelchair scooter drone" speed="27.78" length="7.74" shape="718.06,3281.52 716.49,3283.20 715.46,3284.39 714.37,3285.52 712.64,3287.03"/>
        <lane id=":10936666419_0_2" index="2" disallow="tram rail_urban rail rail_electric rail_fast ship container cable_car subway aircraft wheelchair scooter drone" speed="27.78" length="7.74" shape="715.78,3279.27 714.29,3280.88 713.30,3282.02 712.27,3283.11 710.62,3284.55"/>
    </edge>
    <edge id=":10936666419_3" function="internal">
        <lane id=":10936666419_3_0" index="0" disallow="tram rail_urban rail rail_electric rail_fast ship container cable_car subway aircraft wheelchair scooter drone" speed="9.72" length="6.24" shape="712.40,3277.38 711.83,3279.08 711.10,3280.11 710.07,3280.94 708.60,3282.07"/>
    </edge>
    <edge id=":10936666422_0" function="internal">
        <lane id=":10936666422_0_0" index="0" disallow="tram rail_urban rail rail_electric rail_fast ship container cable_car subway aircraft wheelchair scooter drone" speed="5.54" length="11.29" shape="722.06,3253.82 719.52,3250.89 717.88,3250.23 717.14,3251.83 717.29,3255.71"/>
    </edge>
    <edge id=":10936666422_1" function="internal">
        <lane id=":10936666422_1_0" index="0" disallow="tram rail_urban rail rail_electric rail_fast ship container cable_car subway aircraft wheelchair scooter drone" speed="27.78" length="15.25" shape="722.06,3253.82 713.04,3241.52"/>
    </edge>
    <edge id=":10936666422_2" function="internal">
        <lane id=":10936666422_2_0" index="0" disallow="tram rail_urban rail rail_electric rail_fast ship container cable_car subway aircraft wheelchair scooter drone" speed="5.71" length="11.52" shape="726.78,3245.97 723.47,3245.34 722.00,3246.12 722.39,3248.31 724.64,3251.93"/>
    </edge>
    <edge id=":10936666422_3" function="internal">
        <lane id=":10936666422_3_0" index="0" disallow="tram rail_urban rail rail_electric rail_fast ship container cable_car subway aircraft wheelchair scooter drone" speed="7.77" length="17.65" shape="726.78,3245.97 722.04,3245.26 718.87,3246.65 717.29,3250.13 717.29,3255.71"/>
    </edge>
    <edge id=":10936666422_4" function="internal">
        <lane id=":10936666422_4_0" index="0" disallow="tram rail_urban rail rail_electric rail_fast ship container cable_car subway aircraft wheelchair scooter drone" speed="14.97" length="14.76" shape="726.78,3245.97 723.04,3245.21 719.23,3244.69 715.76,3243.71 713.04,3241.52"/>
    </edge>
    <edge id=":10936666422_5" function="internal">
        <lane id=":10936666422_5_0" index="0" disallow="tram rail_urban rail rail_electric rail_fast ship container cable_car subway aircraft wheelchair scooter drone" speed="27.78" length="15.25" shape="715.62,3239.63 724.64,3251.93"/>
    </edge>
    <edge id=":10936666422_6" function="internal">
        <lane id=":10936666422_6_0" index="0" disallow="tram rail_urban rail rail_electric rail_fast ship container cable_car subway aircraft wheelchair scooter drone" speed="19.01" length="2.97" shape="715.62,3239.63 716.74,3242.38"/>
    </edge>
    <edge id=":10936666422_7" function="internal">
        <lane id=":10936666422_7_0" index="0" disallow="tram rail_urban rail rail_electric rail_fast ship container cable_car subway aircraft wheelchair scooter drone" speed="19.01" length="13.40" shape="716.74,3242.38 717.05,3243.15 717.34,3247.32 717.19,3251.67 717.29,3255.71"/>
    </edge>
    <edge id=":10936666425_0" function="internal">
        <lane id=":10936666425_0_0" index="0" disallow="tram rail_urban rail rail_electric rail_fast ship container cable_car subway aircraft wheelchair scooter drone" speed="27.78" length="14.58" shape="762.24,3246.66 750.93,3255.85"/>
        <lane id=":10936666425_0_1" index="1" disallow="tram rail_urban rail rail_electric rail_fast ship container cable_car subway aircraft wheelchair scooter drone" speed="27.78" length="14.58" shape="760.22,3244.17 748.91,3253.37"/>
        <lane id=":10936666425_0_2" index="2" disallow="tram rail_urban rail rail_electric rail_fast ship container cable_car subway aircraft wheelchair scooter drone" speed="27.78" length="14.58" shape="758.21,3241.69 746.89,3250.88"/>
    </edge>
    <edge id=":10936666425_3" function="internal">
        <lane id=":10936666425_3_0" index="0" disallow="tram rail_urban rail rail_electric rail_fast ship container cable_car subway aircraft wheelchair scooter drone" speed="18.10" length="14.45" shape="758.21,3241.69 754.48,3244.17 751.27,3245.32 748.17,3245.79 744.77,3246.24"/>
    </edge>
    <edge id=":10936666447_0" function="internal">
        <lane id=":10936666447_0_0" index="0" disallow="tram rail_urban rail rail_electric rail_fast ship container cable_car subway aircraft wheelchair scooter drone" speed="27.78" length="9.43" shape="1011.46,3045.67 1003.87,3051.28"/>
        <lane id=":10936666447_0_1" index="1" disallow="tram rail_urban rail rail_electric rail_fast ship container cable_car subway aircraft wheelchair scooter drone" speed="27.78" length="9.43" shape="1009.56,3043.10 1001.97,3048.71"/>
        <lane id=":10936666447_0_2" index="2" disallow="tram rail_urban rail rail_electric rail_fast ship container cable_car subway aircraft wheelchair scooter drone" speed="27.78" length="9.43" shape="1007.65,3040.53 1000.07,3046.14"/>
    </edge>
    <edge id=":10936666447_3" function="internal">
        <lane id=":10936666447_3_0" index="0" allow="pedestrian delivery bicycle" speed="5.98" length="8.04" shape="1007.65,3040.53 1005.26,3042.02 1003.29,3042.65 1001.73,3042.41 1000.61,3041.30"/>
    </edge>
    <edge id=":10936666447_4" function="internal">
        <lane id=":10936666447_4_0" index="0" allow="pedestrian delivery bicycle" speed="7.13" length="10.21" shape="1003.35,3039.66 1004.51,3042.32 1004.67,3044.71 1003.82,3046.84 1001.97,3048.71"/>
        <lane id=":10936666447_4_1" index="1" allow="pedestrian delivery bicycle" speed="6.36" length="7.94" shape="1003.35,3039.66 1003.78,3041.12 1003.37,3042.69 1002.13,3044.36 1000.07,3046.14"/>
    </edge>
    <edge id=":11092875706_0" function="internal">
        <lane id=":11092875706_0_0" index="0" disallow="tram rail_urban rail rail_electric rail_fast ship container cable_car subway aircraft wheelchair scooter drone" speed="7.13" length="9.27" shape="804.25,2620.01 801.71,2620.47 799.78,2621.54 798.47,2623.20 797.77,2625.46"/>
    </edge>
    <edge id=":11092875706_1" function="internal">
        <lane id=":11092875706_1_0" index="0" disallow="tram rail_urban rail rail_electric rail_fast ship container cable_car subway aircraft wheelchair scooter drone" speed="8.01" length="13.90" shape="804.25,2620.01 800.47,2619.69 797.66,2618.25 795.82,2615.69 794.96,2611.99"/>
    </edge>
    <edge id=":11092875706_2" function="internal">
        <lane id=":11092875706_2_0" index="0" disallow="tram rail_urban rail rail_electric rail_fast ship container cable_car subway aircraft wheelchair scooter drone" speed="6.51" length="8.84" shape="798.15,2611.71 798.70,2614.06 799.87,2615.70 801.65,2616.61 804.06,2616.81"/>
    </edge>
    <edge id=":11092875706_3" function="internal">
        <lane id=":11092875706_3_0" index="0" disallow="tram rail_urban rail rail_electric rail_fast ship container cable_car subway aircraft wheelchair scooter drone" speed="13.89" length="13.79" shape="798.15,2611.71 798.38,2615.27 798.41,2618.60 798.21,2621.93 797.77,2625.46"/>
    </edge>
    <edge id=":11092875706_4" function="internal">
        <lane id=":11092875706_4_0" index="0" disallow="tram rail_urban rail rail_electric rail_fast ship container cable_car subway aircraft wheelchair scooter drone" speed="13.89" length="13.02" shape="794.60,2624.97 795.04,2621.56 795.23,2618.50 795.20,2615.43 794.96,2611.99"/>
    </edge>
    <edge id=":11092875706_5" function="internal">
        <lane id=":11092875706_5_0" index="0" disallow="tram rail_urban rail rail_electric rail_fast ship container cable_car subway aircraft wheelchair scooter drone" speed="8.54" length="3.64" shape="794.60,2624.97 795.64,2621.59 795.70,2621.50"/>
    </edge>
    <edge id=":11092875706_6" function="internal">
        <lane id=":11092875706_6_0" index="0" disallow="tram rail_urban rail rail_electric rail_fast ship container cable_car subway aircraft wheelchair scooter drone" speed="8.54" length="10.03" shape="795.70,2621.50 797.56,2619.10 800.37,2617.50 804.06,2616.81"/>
    </edge>
    <edge id=":11220325327_0" function="internal">
        <lane id=":11220325327_0_0" index="0" disallow="tram rail_urban rail rail_electric rail_fast ship container cable_car subway aircraft wheelchair scooter drone" speed="13.89" length="14.79" shape="1162.75,3437.73 1149.30,3443.88"/>
    </edge>
    <edge id=":11220325327_1" function="internal">
        <lane id=":11220325327_1_0" index="0" disallow="tram rail_urban rail rail_electric rail_fast ship container cable_car subway aircraft wheelchair scooter drone" speed="9.18" length="3.77" shape="1162.75,3437.73 1159.35,3438.70 1159.12,3438.67"/>
    </edge>
    <edge id=":11220325327_6" function="internal">
        <lane id=":11220325327_6_0" index="0" disallow="tram rail_urban rail rail_electric rail_fast ship container cable_car subway aircraft wheelchair scooter drone" speed="9.18" length="11.11" shape="1159.12,3438.67 1156.01,3438.37 1152.74,3436.74 1149.54,3433.81"/>
    </edge>
    <edge id=":11220325327_2" function="internal">
        <lane id=":11220325327_2_0" index="0" disallow="tram rail_urban rail rail_electric rail_fast ship container cable_car subway aircraft wheelchair scooter drone" speed="7.87" length="10.74" shape="1151.94,3431.69 1154.31,3433.90 1156.67,3435.16 1159.03,3435.47 1161.39,3434.83"/>
    </edge>
    <edge id=":11220325327_3" function="internal">
        <lane id=":11220325327_3_0" index="0" disallow="tram rail_urban rail rail_electric rail_fast ship container cable_car subway aircraft wheelchair scooter drone" speed="7.57" length="15.50" shape="1151.94,3431.69 1154.39,3435.41 1154.77,3438.68 1153.07,3441.51 1149.30,3443.88"/>
    </edge>
    <edge id=":11220325327_4" function="internal">
        <lane id=":11220325327_4_0" index="0" disallow="tram rail_urban rail rail_electric rail_fast ship container cable_car subway aircraft wheelchair scooter drone" speed="5.95" length="9.09" shape="1148.00,3440.96 1150.21,3439.57 1151.20,3437.91 1150.98,3435.99 1149.54,3433.81"/>
    </edge>
    <edge id=":11220325327_5" function="internal">
        <lane id=":11220325327_5_0" index="0" disallow="tram rail_urban rail rail_electric rail_fast ship container cable_car subway aircraft wheelchair scooter drone" speed="13.89" length="14.73" shape="1148.00,3440.96 1161.39,3434.83"/>
    </edge>
    <edge id=":11221812697_0" function="internal">
        <lane id=":11221812697_0_0" index="0" allow="pedestrian delivery bicycle" speed="5.00" length="5.04" shape="813.02,2917.12 812.65,2915.78 811.94,2914.89 810.90,2914.46 809.51,2914.48"/>
    </edge>
    <edge id=":11221812697_1" function="internal">
        <lane id=":11221812697_1_0" index="0" allow="pedestrian delivery bicycle" speed="5.56" length="10.13" shape="813.02,2917.12 813.05,2914.30 813.92,2912.14 815.63,2910.62 818.18,2909.76"/>
    </edge>
    <edge id=":11221812697_2" function="internal">
        <lane id=":11221812697_2_0" index="0" allow="pedestrian delivery bicycle" speed="5.20" length="5.17" shape="818.75,2912.91 817.48,2913.35 816.63,2914.13 816.20,2915.25 816.19,2916.72"/>
    </edge>
    <edge id=":11221812697_3" function="internal">
        <lane id=":11221812697_3_0" index="0" allow="pedestrian delivery bicycle" speed="5.56" length="9.37" shape="818.75,2912.91 809.51,2914.48"/>
    </edge>
    <edge id=":11221812697_4" function="internal">
        <lane id=":11221812697_4_0" index="0" allow="pedestrian delivery bicycle" speed="5.56" length="9.31" shape="809.00,2911.32 818.18,2909.76"/>
    </edge>
    <edge id=":11221812697_5" function="internal">
        <lane id=":11221812697_5_0" index="0" allow="pedestrian delivery bicycle" speed="5.56" length="10.34" shape="809.00,2911.32 811.85,2911.28 814.00,2912.16 815.44,2913.97 816.19,2916.72"/>
    </edge>
    <edge id=":11221812700_0" function="internal">
        <lane id=":11221812700_0_0" index="0" allow="pedestrian delivery bicycle" speed="5.26" length="5.27" shape="850.62,3082.37 849.57,3081.53 848.44,3081.23 847.23,3081.48 845.93,3082.27"/>
    </edge>
    <edge id=":11221812700_1" function="internal">
        <lane id=":11221812700_1_0" index="0" allow="pedestrian delivery bicycle" speed="5.56" length="9.41" shape="850.62,3082.37 844.31,3075.39"/>
    </edge>
    <edge id=":11221812700_2" function="internal">
        <lane id=":11221812700_2_0" index="0" allow="pedestrian delivery bicycle" speed="5.56" length="9.41" shape="846.68,3073.24 852.99,3080.22"/>
    </edge>
    <edge id=":11221812700_3" function="internal">
        <lane id=":11221812700_3_0" index="0" allow="pedestrian delivery bicycle" speed="5.56" length="10.49" shape="846.68,3073.24 848.30,3075.65 848.71,3077.95 847.93,3080.16 845.93,3082.27"/>
    </edge>
    <edge id=":11221812700_4" function="internal">
        <lane id=":11221812700_4_0" index="0" allow="pedestrian delivery bicycle" speed="4.97" length="5.08" shape="843.94,3079.76 844.91,3078.74 845.29,3077.67 845.09,3076.55 844.31,3075.39"/>
    </edge>
    <edge id=":11221812700_5" function="internal">
        <lane id=":11221812700_5_0" index="0" allow="pedestrian delivery bicycle" speed="5.56" length="10.19" shape="843.94,3079.76 846.40,3078.29 848.72,3077.88 850.92,3078.53 852.99,3080.22"/>
    </edge>
    <edge id=":11221814852_0" function="internal">
        <lane id=":11221814852_0_0" index="0" disallow="tram rail_urban rail rail_electric rail_fast ship container cable_car subway aircraft wheelchair scooter drone" speed="7.93" length="10.39" shape="939.51,3309.71 939.12,3306.76 938.12,3304.42 936.50,3302.69 934.27,3301.57"/>
    </edge>
    <edge id=":11221814852_1" function="internal">
        <lane id=":11221814852_1_0" index="0" disallow="tram rail_urban rail rail_electric rail_fast ship container cable_car subway aircraft wheelchair scooter drone" speed="7.65" length="15.16" shape="939.51,3309.71 940.02,3305.44 941.79,3302.68 944.82,3301.44 949.11,3301.72"/>
    </edge>
    <edge id=":11221814852_2" function="internal">
        <lane id=":11221814852_2_0" index="0" disallow="tram rail_urban rail rail_electric rail_fast ship container cable_car subway aircraft wheelchair scooter drone" speed="6.06" length="9.07" shape="948.45,3304.85 945.89,3304.69 944.07,3305.43 943.01,3307.08 942.71,3309.63"/>
    </edge>
    <edge id=":11221814852_3" function="internal">
        <lane id=":11221814852_3_0" index="0" disallow="tram rail_urban rail rail_electric rail_fast ship container cable_car subway aircraft wheelchair scooter drone" speed="13.89" length="14.57" shape="948.45,3304.85 944.84,3304.12 941.31,3303.40 937.81,3302.58 934.27,3301.57"/>
    </edge>
    <edge id=":11221814852_4" function="internal">
        <lane id=":11221814852_4_0" index="0" disallow="tram rail_urban rail rail_electric rail_fast ship container cable_car subway aircraft wheelchair scooter drone" speed="13.89" length="14.56" shape="934.94,3298.43 938.48,3299.44 941.98,3300.26 945.50,3300.99 949.11,3301.72"/>
    </edge>
    <edge id=":11221814852_5" function="internal">
        <lane id=":11221814852_5_0" index="0" disallow="tram rail_urban rail rail_electric rail_fast ship container cable_car subway aircraft wheelchair scooter drone" speed="9.32" length="3.68" shape="934.94,3298.43 938.26,3300.03"/>
    </edge>
    <edge id=":11221814852_6" function="internal">
        <lane id=":11221814852_6_0" index="0" disallow="tram rail_urban rail rail_electric rail_fast ship container cable_car subway aircraft wheelchair scooter drone" speed="9.32" length="10.97" shape="938.26,3300.03 940.66,3302.43 942.14,3305.63 942.71,3309.63"/>
    </edge>
    <edge id=":11221904712_0" function="internal">
        <lane id=":11221904712_0_0" index="0" disallow="tram rail_urban rail rail_electric rail_fast ship container cable_car subway aircraft wheelchair scooter drone" speed="13.89" length="13.19" shape="870.07,2517.28 857.16,2519.97"/>
    </edge>
    <edge id=":11221904712_1" function="internal">
        <lane id=":11221904712_1_0" index="0" disallow="tram rail_urban rail rail_electric rail_fast ship container cable_car subway aircraft wheelchair scooter drone" speed="7.95" length="4.09" shape="870.07,2517.28 866.15,2517.53 866.00,2517.47"/>
    </edge>
    <edge id=":11221904712_6" function="internal">
        <lane id=":11221904712_6_0" index="0" disallow="tram rail_urban rail rail_electric rail_fast ship container cable_car subway aircraft wheelchair scooter drone" speed="7.95" length="10.21" shape="866.00,2517.47 863.12,2516.45 860.98,2514.04 859.74,2510.31"/>
    </edge>
    <edge id=":11221904712_2" function="internal">
        <lane id=":11221904712_2_0" index="0" disallow="tram rail_urban rail rail_electric rail_fast ship container cable_car subway aircraft wheelchair scooter drone" speed="6.45" length="9.03" shape="862.89,2509.74 863.67,2512.10 865.02,2513.62 866.94,2514.30 869.42,2514.14"/>
    </edge>
    <edge id=":11221904712_3" function="internal">
        <lane id=":11221904712_3_0" index="0" disallow="tram rail_urban rail rail_electric rail_fast ship container cable_car subway aircraft wheelchair scooter drone" speed="7.83" length="13.27" shape="862.89,2509.74 863.12,2513.65 862.24,2516.65 860.26,2518.76 857.16,2519.97"/>
    </edge>
    <edge id=":11221904712_4" function="internal">
        <lane id=":11221904712_4_0" index="0" disallow="tram rail_urban rail rail_electric rail_fast ship container cable_car subway aircraft wheelchair scooter drone" speed="6.30" length="8.22" shape="856.50,2516.84 858.30,2516.10 859.44,2514.76 859.92,2512.83 859.74,2510.31"/>
    </edge>
    <edge id=":11221904712_5" function="internal">
        <lane id=":11221904712_5_0" index="0" disallow="tram rail_urban rail rail_electric rail_fast ship container cable_car subway aircraft wheelchair scooter drone" speed="13.89" length="13.19" shape="856.50,2516.84 869.42,2514.14"/>
    </edge>
    <edge id=":11222004603_0" function="internal">
        <lane id=":11222004603_0_0" index="0" disallow="tram rail_urban rail rail_electric rail_fast ship container cable_car subway aircraft wheelchair scooter drone" speed="6.49" length="9.03" shape="1007.53,2511.28 1007.11,2508.84 1006.01,2507.12 1004.22,2506.13 1001.76,2505.87"/>
    </edge>
    <edge id=":11222004603_1" function="internal">
        <lane id=":11222004603_1_0" index="0" disallow="tram rail_urban rail rail_electric rail_fast ship container cable_car subway aircraft wheelchair scooter drone" speed="8.02" length="14.20" shape="1007.53,2511.28 1007.97,2507.40 1009.53,2504.59 1012.22,2502.84 1016.04,2502.15"/>
    </edge>
    <edge id=":11222004603_2" function="internal">
        <lane id=":11222004603_2_0" index="0" disallow="tram rail_urban rail rail_electric rail_fast ship container cable_car subway aircraft wheelchair scooter drone" speed="6.53" length="9.07" shape="1016.15,2505.35 1013.72,2505.79 1012.00,2506.91 1011.01,2508.71 1010.73,2511.18"/>
    </edge>
    <edge id=":11222004603_3" function="internal">
        <lane id=":11222004603_3_0" index="0" disallow="tram rail_urban rail rail_electric rail_fast ship container cable_car subway aircraft wheelchair scooter drone" speed="13.89" length="14.40" shape="1016.15,2505.35 1001.76,2505.87"/>
    </edge>
    <edge id=":11222004603_4" function="internal">
        <lane id=":11222004603_4_0" index="0" disallow="tram rail_urban rail rail_electric rail_fast ship container cable_car subway aircraft wheelchair scooter drone" speed="13.89" length="14.40" shape="1001.64,2502.67 1016.04,2502.15"/>
    </edge>
    <edge id=":11222004603_5" function="internal">
        <lane id=":11222004603_5_0" index="0" disallow="tram rail_urban rail rail_electric rail_fast ship container cable_car subway aircraft wheelchair scooter drone" speed="7.99" length="4.07" shape="1001.64,2502.67 1005.52,2503.09 1005.67,2503.17"/>
    </edge>
    <edge id=":11222004603_6" function="internal">
        <lane id=":11222004603_6_0" index="0" disallow="tram rail_urban rail rail_electric rail_fast ship container cable_car subway aircraft wheelchair scooter drone" speed="7.99" length="10.15" shape="1005.67,2503.17 1008.33,2504.64 1010.07,2507.34 1010.73,2511.18"/>
    </edge>
    <edge id=":11222045528_0" function="internal">
        <lane id=":11222045528_0_0" index="0" disallow="tram rail_urban rail rail_electric rail_fast ship container cable_car subway aircraft wheelchair scooter drone" speed="22.22" length="9.44" shape="1146.11,3018.68 1141.49,3010.45"/>
    </edge>
    <edge id=":11222045528_1" function="internal">
        <lane id=":11222045528_1_0" index="0" allow="pedestrian delivery bicycle" speed="6.78" length="3.36" shape="1146.11,3018.68 1145.04,3015.91 1145.06,3015.52"/>
    </edge>
    <edge id=":11222045528_6" function="internal">
        <lane id=":11222045528_6_0" index="0" allow="pedestrian delivery bicycle" speed="6.78" length="7.33" shape="1145.06,3015.52 1145.17,3013.54 1146.51,3011.58 1149.05,3010.03"/>
    </edge>
    <edge id=":11222045528_2" function="internal">
        <lane id=":11222045528_2_0" index="0" allow="pedestrian delivery bicycle" speed="4.93" length="5.13" shape="1150.31,3012.97 1149.09,3013.71 1148.45,3014.65 1148.39,3015.79 1148.90,3017.12"/>
    </edge>
    <edge id=":11222045528_3" function="internal">
        <lane id=":11222045528_3_0" index="0" allow="pedestrian delivery bicycle" speed="7.15" length="10.22" shape="1150.31,3012.97 1147.52,3013.77 1145.12,3013.62 1143.11,3012.51 1141.49,3010.45"/>
    </edge>
    <edge id=":11222045528_4" function="internal">
        <lane id=":11222045528_4_0" index="0" allow="pedestrian delivery bicycle" speed="5.41" length="5.45" shape="1144.29,3008.89 1145.12,3009.92 1146.19,3010.45 1147.50,3010.49 1149.05,3010.03"/>
    </edge>
    <edge id=":11222045528_5" function="internal">
        <lane id=":11222045528_5_0" index="0" disallow="tram rail_urban rail rail_electric rail_fast ship container cable_car subway aircraft wheelchair scooter drone" speed="22.22" length="9.44" shape="1144.29,3008.89 1148.90,3017.12"/>
    </edge>
    <edge id=":11222045533_0" function="internal">
        <lane id=":11222045533_0_0" index="0" disallow="tram rail_urban rail rail_electric rail_fast ship container cable_car subway aircraft wheelchair scooter drone" speed="22.22" length="9.46" shape="1153.25,3036.06 1152.70,3033.30 1152.44,3031.36 1151.97,3029.50 1150.77,3027.00"/>
    </edge>
    <edge id=":11222045533_1" function="internal">
        <lane id=":11222045533_1_0" index="0" allow="pedestrian delivery bicycle" speed="6.96" length="3.60" shape="1153.25,3036.06 1152.97,3033.35 1153.23,3032.51"/>
    </edge>
    <edge id=":11222045533_6" function="internal">
        <lane id=":11222045533_6_0" index="0" allow="pedestrian delivery bicycle" speed="6.96" length="6.58" shape="1153.23,3032.51 1153.65,3031.16 1155.28,3029.49 1157.87,3028.34"/>
    </edge>
    <edge id=":11222045533_2" function="internal">
        <lane id=":11222045533_2_0" index="0" allow="pedestrian delivery bicycle" speed="5.16" length="5.15" shape="1158.76,3031.41 1157.43,3032.00 1156.58,3032.83 1156.22,3033.93 1156.35,3035.28"/>
    </edge>
    <edge id=":11222045533_3" function="internal">
        <lane id=":11222045533_3_0" index="0" allow="pedestrian delivery bicycle" speed="7.41" length="9.92" shape="1158.76,3031.41 1156.48,3031.65 1154.39,3031.00 1152.49,3029.45 1150.77,3027.00"/>
    </edge>
    <edge id=":11222045533_4" function="internal">
        <lane id=":11222045533_4_0" index="0" allow="pedestrian delivery bicycle" speed="5.38" length="4.83" shape="1153.98,3026.18 1154.82,3027.38 1155.74,3028.13 1156.76,3028.45 1157.87,3028.34"/>
    </edge>
    <edge id=":11222045533_5" function="internal">