<?xml version="1.0" encoding="UTF-8"?>

<!-- generated on 2026-02-13T15:28:21.292866+05:30 by Eclipse SUMO netconvert 1.25.0
<netconvertConfiguration xmlns:xsi="http://www.w3.org/2001/XMLSchema-instance" xsi:noNamespaceSchemaLocation="http://sumo.dlr.de/xsd/netconvertConfiguration.xsd">

    <input>
        <osm-files value="map.osm"/>
    </input>

    <output>
        <output-file value="area.net.xml"/>
    </output>

    <projection>
        <proj.utm value="true"/>
    </projection>

    <processing>
        <geometry.remove value="true"/>
        <roundabouts.guess value="true"/>
    </processing>

    <ramp_guessing>
        <ramps.guess value="true"/>
    </ramp_guessing>

    <junctions>
        <no-turnarounds value="true"/>
    </junctions>

</netconvertConfiguration>
-->

<net version="1.20" junctionCornerDetail="5" limitTurnSpeed="5.50" xmlns:xsi="http://www.w3.org/2001/XMLSchema-instance" xsi:noNamespaceSchemaLocation="http://sumo.dlr.de/xsd/net_file.xsd">

    <location netOffset="-716957.53,-934460.60" convBoundary="0.00,0.00,4566.05,3990.00" origBoundary="76.970769,8.448574,77.030880,8.576337" projParameter="+proj=utm +zone=43 +ellps=WGS84 +datum=WGS84 +units=m +no_defs"/>

    <type id="highway.living_street" priority="2" numLanes="1" speed="2.78" disallow="tram rail_urban rail rail_electric rail_fast ship container cable_car subway aircraft wheelchair scooter drone" oneway="0"/>
    <type id="highway.primary" priority="12" numLanes="2" speed="27.78" disallow="tram rail_urban rail rail_electric rail_fast ship container cable_car subway aircraft wheelchair scooter drone" oneway="0"/>
    <type id="highway.primary_link" priority="7" numLanes="1" speed="22.22" disallow="tram rail_urban rail rail_electric rail_fast ship container cable_car subway aircraft wheelchair scooter drone" oneway="0"/>
    <type id="highway.residential" priority="3" numLanes="1" speed="13.89" disallow="tram rail_urban rail rail_electric rail_fast ship container cable_car subway aircraft wheelchair scooter drone" oneway="0"/>
    <type id="highway.secondary" priority="11" numLanes="1" speed="27.78" disallow="tram rail_urban rail rail_electric rail_fast ship container cable_car subway aircraft wheelchair scooter drone" oneway="0"/>
    <type id="highway.service" priority="1" numLanes="1" speed="5.56" allow="pedestrian delivery bicycle" oneway="0"/>
    <type id="highway.tertiary" priority="10" numLanes="1" speed="22.22" disallow="tram rail_urban rail rail_electric rail_fast ship container cable_car subway aircraft wheelchair scooter drone" oneway="0"/>
    <type id="highway.tertiary_link" priority="5" numLanes="1" speed="22.22" disallow="tram rail_urban rail rail_electric rail_fast ship container cable_car subway aircraft wheelchair scooter drone" oneway="0"/>
    <type id="highway.unclassified" priority="4" numLanes="1" speed="13.89" disallow="tram rail_urban rail rail_electric rail_fast ship container cable_car subway aircraft wheelchair scooter drone" oneway="0"/>

    <edge id=":10168276772_0" function="internal">
        <lane id=":10168276772_0_0" index="0" disallow="tram rail_urban rail rail_electric rail_fast ship container cable_car subway aircraft wheelchair scooter drone" speed="5.56" length="14.48" shape="1544.71,2612.94 1539.39,2626.42"/>
    </edge>
    <edge id=":10168276772_1" function="internal">
        <lane id=":10168276772_1_0" index="0" disallow="tram rail_urban rail rail_electric rail_fast ship container cable_car subway aircraft wheelchair scooter drone" speed="8.59" length="3.83" shape="1544.71,2612.94 1542.85,2616.11 1542.72,2616.21"/>
    </edge>
    <edge id=":10168276772_6" function="internal">
        <lane id=":10168276772_6_0" index="0" disallow="tram rail_urban rail rail_electric rail_fast ship container cable_car subway aircraft wheelchair scooter drone" speed="8.59" length="10.65" shape="1542.72,2616.21 1540.25,2618.10 1536.91,2618.90 1532.83,2618.52"/>
    </edge>
    <edge id=":10168276772_2" function="internal">
        <lane id=":10168276772_2_0" index="0" disallow="tram rail_urban rail rail_electric rail_fast ship container cable_car subway aircraft wheelchair scooter drone" speed="7.20" length="9.90" shape="1533.51,2615.39 1536.37,2615.68 1538.69,2615.17 1540.48,2613.87 1541.73,2611.77"/>
    </edge>
    <edge id=":10168276772_3" function="internal">
        <lane id=":10168276772_3_0" index="0" disallow="tram rail_urban rail rail_electric rail_fast ship container cable_car subway aircraft wheelchair scooter drone" speed="7.74" length="14.84" shape="1533.51,2615.39 1537.41,2616.85 1539.69,2619.18 1540.35,2622.36 1539.39,2626.42"/>
    </edge>
    <edge id=":10168276772_4" function="internal">
        <lane id=":10168276772_4_0" index="0" disallow="tram rail_urban rail rail_electric rail_fast ship container cable_car subway aircraft wheelchair scooter drone" speed="6.19" length="9.05" shape="1536.41,2625.24 1537.00,2622.77 1536.60,2620.83 1535.20,2619.41 1532.83,2618.52"/>
    </edge>
    <edge id=":10168276772_5" function="internal">
        <lane id=":10168276772_5_0" index="0" disallow="tram rail_urban rail rail_electric rail_fast ship container cable_car subway aircraft wheelchair scooter drone" speed="5.56" length="14.48" shape="1536.41,2625.24 1541.73,2611.77"/>
    </edge>
    <edge id=":10936666419_0" function="internal">
        <lane id=":10936666419_0_0" index="0" disallow="tram rail_urban rail rail_electric rail_fast ship container cable_car subway aircraft wheelchair scooter drone" speed="27.78" length="7.74" shape="720.35,2724.08 718.70,2725.83 717.62,2727.08 716.48,2728.26 714.67,2729.83"/>
        <lane id=":10936666419_0_1" index="1" disallow="tram rail_urban rail rail_electric rail_fast ship container cable_car subway aircraft wheelchair scooter drone" speed="27.78" length="7.74" shape="718.06,2721.84 716.49,2723.52 715.46,2724.71 714.37,2725.84 712.64,2727.35"/>
        <lane id=":10936666419_0_2" index="2" disallow="tram rail_urban rail rail_electric rail_fast ship container cable_car subway aircraft wheelchair scooter drone" speed="27.78" length="7.74" shape="715.78,2719.59 714.29,2721.20 713.30,2722.34 712.27,2723.43 710.62,2724.87"/>
    </edge>
    <edge id=":10936666419_3" function="internal">
        <lane id=":10936666419_3_0" index="0" disallow="tram rail_urban rail rail_electric rail_fast ship container cable_car subway aircraft wheelchair scooter drone" speed="9.72" length="6.23" shape="712.40,2717.70 711.83,2719.40 711.10,2720.43 710.07,2721.27 708.60,2722.39"/>
    </edge>
    <edge id=":10936666422_0" function="internal">
        <lane id=":10936666422_0_0" index="0" disallow="tram rail_urban rail rail_electric rail_fast ship container cable_car subway aircraft wheelchair scooter drone" speed="5.54" length="11.29" shape="722.06,2694.15 719.52,2691.22 717.88,2690.56 717.14,2692.16 717.29,2696.04"/>
    </edge>
    <edge id=":10936666422_1" function="internal">
        <lane id=":10936666422_1_0" index="0" disallow="tram rail_urban rail rail_electric rail_fast ship container cable_car subway aircraft wheelchair scooter drone" speed="27.78" length="15.26" shape="722.06,2694.15 713.04,2681.85"/>
    </edge>
    <edge id=":10936666422_2" function="internal">
        <lane id=":10936666422_2_0" index="0" disallow="tram rail_urban rail rail_electric rail_fast ship container cable_car subway aircraft wheelchair scooter drone" speed="5.71" length="11.53" shape="726.78,2686.29 723.46,2685.66 722.00,2686.44 722.39,2688.64 724.64,2692.26"/>
    </edge>
    <edge id=":10936666422_3" function="internal">
        <lane id=":10936666422_3_0" index="0" disallow="tram rail_urban rail rail_electric rail_fast ship container cable_car subway aircraft wheelchair scooter drone" speed="7.77" length="17.65" shape="726.78,2686.29 722.03,2685.59 718.87,2686.98 717.29,2690.46 717.29,2696.04"/>
    </edge>
    <edge id=":10936666422_4" function="internal">
        <lane id=":10936666422_4_0" index="0" disallow="tram rail_urban rail rail_electric rail_fast ship container cable_car subway aircraft wheelchair scooter drone" speed="14.96" length="14.75" shape="726.78,2686.29 723.04,2685.53 719.23,2685.02 715.76,2684.03 713.04,2681.85"/>
    </edge>
    <edge id=":10936666422_5" function="internal">
        <lane id=":10936666422_5_0" index="0" disallow="tram rail_urban rail rail_electric rail_fast ship container cable_car subway aircraft wheelchair scooter drone" speed="27.78" length="15.25" shape="715.62,2679.96 724.64,2692.26"/>
    </edge>
    <edge id=":10936666422_6" function="internal">
        <lane id=":10936666422_6_0" index="0" disallow="tram rail_urban rail rail_electric rail_fast ship container cable_car subway aircraft wheelchair scooter drone" speed="19.02" length="2.97" shape="715.62,2679.96 716.73,2682.71"/>
    </edge>
    <edge id=":10936666422_7" function="internal">
        <lane id=":10936666422_7_0" index="0" disallow="tram rail_urban rail rail_electric rail_fast ship container cable_car subway aircraft wheelchair scooter drone" speed="19.02" length="13.40" shape="716.73,2682.71 717.04,2683.47 717.34,2687.65 717.19,2692.00 717.29,2696.04"/>
    </edge>
    <edge id=":10936666425_0" function="internal">
        <lane id=":10936666425_0_0" index="0" disallow="tram rail_urban rail rail_electric rail_fast ship container cable_car subway aircraft wheelchair scooter drone" speed="27.78" length="14.58" shape="762.24,2686.99 750.93,2696.18"/>
        <lane id=":10936666425_0_1" index="1" disallow="tram rail_urban rail rail_electric rail_fast ship container cable_car subway aircraft wheelchair scooter drone" speed="27.78" length="14.58" shape="760.22,2684.50 748.91,2693.70"/>
        <lane id=":10936666425_0_2" index="2" disallow="tram rail_urban rail rail_electric rail_fast ship container cable_car subway aircraft wheelchair scooter drone" speed="27.78" length="14.58" shape="758.21,2682.02 746.89,2691.21"/>
    </edge>
    <edge id=":10936666425_3" function="internal">
        <lane id=":10936666425_3_0" index="0" disallow="tram rail_urban rail rail_electric rail_fast ship container cable_car subway aircraft wheelchair scooter drone" speed="18.10" length="14.45" shape="758.21,2682.02 754.48,2684.50 751.27,2685.65 748.17,2686.12 744.77,2686.57"/>
    </edge>
    <edge id=":10936666447_0" function="internal">
        <lane id=":10936666447_0_0" index="0" disallow="tram rail_urban rail rail_electric rail_fast ship container cable_car subway aircraft wheelchair scooter drone" speed="27.78" length="9.43" shape="1011.46,2486.00 1003.87,2491.61"/>
        <lane id=":10936666447_0_1" index="1" disallow="tram rail_urban rail rail_electric rail_fast ship container cable_car subway aircraft wheelchair scooter drone" speed="27.78" length="9.43" shape="1009.56,2483.43 1001.97,2489.04"/>
        <lane id=":10936666447_0_2" index="2" disallow="tram rail_urban rail rail_electric rail_fast ship container cable_car subway aircraft wheelchair scooter drone" speed="27.78" length="9.43" shape="1007.65,2480.86 1000.07,2486.47"/>
    </edge>
    <edge id=":10936666447_3" function="internal">
        <lane id=":10936666447_3_0" index="0" allow="pedestrian delivery bicycle" speed="5.98" length="8.04" shape="1007.65,2480.86 1005.26,2482.35 1003.29,2482.98 1001.73,2482.74 1000.61,2481.63"/>
    </edge>
    <edge id=":10936666447_4" function="internal">
        <lane id=":10936666447_4_0" index="0" allow="pedestrian delivery bicycle" speed="7.13" length="10.21" shape="1003.35,2479.99 1004.51,2482.65 1004.67,2485.04 1003.82,2487.17 1001.97,2489.04"/>
        <lane id=":10936666447_4_1" index="1" allow="pedestrian delivery bicycle" speed="6.36" length="7.94" shape="1003.35,2479.99 1003.78,2481.45 1003.37,2483.02 1002.13,2484.69 1000.07,2486.47"/>
    </edge>
    <edge id=":11092875706_0" function="internal">
        <lane id=":11092875706_0_0" index="0" disallow="tram rail_urban rail rail_electric rail_fast ship container cable_car subway aircraft wheelchair scooter drone" speed="7.13" length="9.27" shape="804.25,2060.34 801.71,2060.80 799.78,2061.87 798.47,2063.53 797.77,2065.79"/>
    </edge>
    <edge id=":11092875706_1" function="internal">
        <lane id=":11092875706_1_0" index="0" disallow="tram rail_urban rail rail_electric rail_fast ship container cable_car subway aircraft wheelchair scooter drone" speed="8.01" length="13.90" shape="804.25,2060.34 800.47,2060.02 797.66,2058.58 795.82,2056.02 794.96,2052.32"/>
    </edge>
    <edge id=":11092875706_2" function="internal">
        <lane id=":11092875706_2_0" index="0" disallow="tram rail_urban rail rail_electric rail_fast ship container cable_car subway aircraft wheelchair scooter drone" speed="6.51" length="8.84" shape="798.15,2052.04 798.70,2054.39 799.87,2056.03 801.65,2056.94 804.06,2057.14"/>
    </edge>
    <edge id=":11092875706_3" function="internal">
        <lane id=":11092875706_3_0" index="0" disallow="tram rail_urban rail rail_electric rail_fast ship container cable_car subway aircraft wheelchair scooter drone" speed="13.89" length="13.79" shape="798.15,2052.04 798.38,2055.60 798.41,2058.93 798.21,2062.26 797.77,2065.79"/>
    </edge>
    <edge id=":11092875706_4" function="internal">
        <lane id=":11092875706_4_0" index="0" disallow="tram rail_urban rail rail_electric rail_fast ship container cable_car subway aircraft wheelchair scooter drone" speed="13.89" length="13.02" shape="794.60,2065.30 795.04,2061.89 795.23,2058.83 795.20,2055.76 794.96,2052.32"/>
    </edge>
    <edge id=":11092875706_5" function="internal">
        <lane id=":11092875706_5_0" index="0" disallow="tram rail_urban rail rail_electric rail_fast ship container cable_car subway aircraft wheelchair scooter drone" speed="8.54" length="3.64" shape="794.60,2065.30 795.64,2061.92 795.70,2061.83"/>
    </edge>
    <edge id=":11092875706_6" function="internal">
        <lane id=":11092875706_6_0" index="0" disallow="tram rail_urban rail rail_electric rail_fast ship container cable_car subway aircraft wheelchair scooter drone" speed="8.54" length="10.03" shape="795.70,2061.83 797.56,2059.43 800.37,2057.83 804.06,2057.14"/>
    </edge>
    <edge id=":11220325327_0" function="internal">
        <lane id=":11220325327_0_0" index="0" disallow="tram rail_urban rail rail_electric rail_fast ship container cable_car subway aircraft wheelchair scooter drone" speed="13.89" length="14.79" shape="1162.75,2878.06 1149.30,2884.21"/>
    </edge>
    <edge id=":11220325327_1" function="internal">
        <lane id=":11220325327_1_0" index="0" disallow="tram rail_urban rail rail_electric rail_fast ship container cable_car subway aircraft wheelchair scooter drone" speed="9.18" length="3.77" shape="1162.75,2878.06 1159.35,2879.03 1159.12,2879.00"/>
    </edge>
    <edge id=":11220325327_6" function="internal">
        <lane id=":11220325327_6_0" index="0" disallow="tram rail_urban rail rail_electric rail_fast ship container cable_car subway aircraft wheelchair scooter drone" speed="9.18" length="11.11" shape="1159.12,2879.00 1156.01,2878.70 1152.74,2877.07 1149.54,2874.14"/>
    </edge>
    <edge id=":11220325327_2" function="internal">
        <lane id=":11220325327_2_0" index="0" disallow="tram rail_urban rail rail_electric rail_fast ship container cable_car subway aircraft wheelchair scooter drone" speed="7.87" length="10.74" shape="1151.94,2872.02 1154.31,2874.23 1156.67,2875.49 1159.03,2875.80 1161.39,2875.16"/>
    </edge>
    <edge id=":11220325327_3" function="internal">
        <lane id=":11220325327_3_0" index="0" disallow="tram rail_urban rail rail_electric rail_fast ship container cable_car subway aircraft wheelchair scooter drone" speed="7.57" length="15.50" shape="1151.94,2872.02 1154.39,2875.74 1154.77,2879.01 1153.07,2881.84 1149.30,2884.21"/>
    </edge>
    <edge id=":11220325327_4" function="internal">
        <lane id=":11220325327_4_0" index="0" disallow="tram rail_urban rail rail_electric rail_fast ship container cable_car subway aircraft wheelchair scooter drone" speed="5.95" length="9.09" shape="1148.00,2881.29 1150.21,2879.90 1151.20,2878.24 1150.98,2876.32 1149.54,2874.14"/>
    </edge>
    <edge id=":11220325327_5" function="internal">
        <lane id=":11220325327_5_0" index="0" disallow="tram rail_urban rail rail_electric rail_fast ship container cable_car subway aircraft wheelchair scooter drone" speed="13.89" length="14.73" shape="1148.00,2881.29 1161.39,2875.16"/>
    </edge>
    <edge id=":11221812697_0" function="internal">
        <lane id=":11221812697_0_0" index="0" allow="pedestrian delivery bicycle" speed="5.00" length="5.04" shape="813.02,2357.45 812.65,2356.11 811.94,2355.22 810.90,2354.79 809.51,2354.81"/>
    </edge>
    <edge id=":11221812697_1" function="internal">
        <lane id=":11221812697_1_0" index="0" allow="pedestrian delivery bicycle" speed="5.56" length="10.13" shape="813.02,2357.45 813.05,2354.63 813.92,2352.47 815.63,2350.95 818.18,2350.09"/>
    </edge>
    <edge id=":11221812697_2" function="internal">
        <lane id=":11221812697_2_0" index="0" allow="pedestrian delivery bicycle" speed="5.20" length="5.17" shape="818.75,2353.24 817.48,2353.68 816.63,2354.46 816.20,2355.58 816.19,2357.05"/>
    </edge>
    <edge id=":11221812697_3" function="internal">
        <lane id=":11221812697_3_0" index="0" allow="pedestrian delivery bicycle" speed="5.56" length="9.37" shape="818.75,2353.24 809.51,2354.81"/>
    </edge>
    <edge id=":11221812697_4" function="internal">
        <lane id=":11221812697_4_0" index="0" allow="pedestrian delivery bicycle" speed="5.56" length="9.31" shape="809.00,2351.65 818.18,2350.09"/>
    </edge>
    <edge id=":11221812697_5" function="internal">
        <lane id=":11221812697_5_0" index="0" allow="pedestrian delivery bicycle" speed="5.56" length="10.34" shape="809.00,2351.65 811.85,2351.61 814.00,2352.49 815.44,2354.30 816.19,2357.05"/>
    </edge>
    <edge id=":11221812700_0" function="internal">
        <lane id=":11221812700_0_0" index="0" allow="pedestrian delivery bicycle" speed="5.27" length="5.27" shape="850.62,2522.69 849.57,2521.86 848.44,2521.56 847.23,2521.81 845.93,2522.60"/>
    </edge>
    <edge id=":11221812700_1" function="internal">
        <lane id=":11221812700_1_0" index="0" allow="pedestrian delivery bicycle" speed="5.56" length="9.41" shape="850.62,2522.69 844.31,2515.72"/>
    </edge>
    <edge id=":11221812700_2" function="internal">
        <lane id=":11221812700_2_0" index="0" allow="pedestrian delivery bicycle" speed="5.56" length="9.41" shape="846.68,2513.57 852.99,2520.55"/>
    </edge>
    <edge id=":11221812700_3" function="internal">
        <lane id=":11221812700_3_0" index="0" allow="pedestrian delivery bicycle" speed="5.56" length="10.49" shape="846.68,2513.57 848.30,2515.98 848.71,2518.28 847.93,2520.49 845.93,2522.60"/>
    </edge>
    <edge id=":11221812700_4" function="internal">
        <lane id=":11221812700_4_0" index="0" allow="pedestrian delivery bicycle" speed="4.97" length="5.08" shape="843.94,2520.09 844.91,2519.07 845.29,2518.00 845.09,2516.88 844.31,2515.72"/>
    </edge>
    <edge id=":11221812700_5" function="internal">
        <lane id=":11221812700_5_0" index="0" allow="pedestrian delivery bicycle" speed="5.56" length="10.18" shape="843.94,2520.09 846.39,2518.62 848.72,2518.21 850.92,2518.85 852.99,2520.55"/>
    </edge>
    <edge id=":11221814852_0" function="internal">
        <lane id=":11221814852_0_0" index="0" disallow="tram rail_urban rail rail_electric rail_fast ship container cable_car subway aircraft wheelchair scooter drone" speed="7.93" length="10.39" shape="939.51,2750.03 939.12,2747.08 938.12,2744.74 936.50,2743.02 934.26,2741.90"/>
    </edge>
    <edge id=":11221814852_1" function="internal">
        <lane id=":11221814852_1_0" index="0" disallow="tram rail_urban rail rail_electric rail_fast ship container cable_car subway aircraft wheelchair scooter drone" speed="7.65" length="15.16" shape="939.51,2750.03 940.02,2745.76 941.79,2743.00 944.82,2741.76 949.11,2742.04"/>
    </edge>
    <edge id=":11221814852_2" function="internal">
        <lane id=":11221814852_2_0" index="0" disallow="tram rail_urban rail rail_electric rail_fast ship container cable_car subway aircraft wheelchair scooter drone" speed="6.06" length="9.07" shape="948.45,2745.17 945.89,2745.01 944.07,2745.75 943.01,2747.40 942.71,2749.95"/>
    </edge>
    <edge id=":11221814852_3" function="internal">
        <lane id=":11221814852_3_0" index="0" disallow="tram rail_urban rail rail_electric rail_fast ship container cable_car subway aircraft wheelchair scooter drone" speed="13.89" length="14.57" shape="948.45,2745.17 944.84,2744.44 941.31,2743.72 937.80,2742.91 934.26,2741.90"/>
    </edge>
    <edge id=":11221814852_4" function="internal">
        <lane id=":11221814852_4_0" index="0" disallow="tram rail_urban rail rail_electric rail_fast ship container cable_car subway aircraft wheelchair scooter drone" speed="13.89" length="14.57" shape="934.93,2738.76 938.47,2739.76 941.97,2740.58 945.50,2741.31 949.11,2742.04"/>
    </edge>
    <edge id=":11221814852_5" function="internal">
        <lane id=":11221814852_5_0" index="0" disallow="tram rail_urban rail rail_electric rail_fast ship container cable_car subway aircraft wheelchair scooter drone" speed="9.32" length="3.69" shape="934.93,2738.76 938.25,2740.36"/>
    </edge>
    <edge id=":11221814852_6" function="internal">
        <lane id=":11221814852_6_0" index="0" disallow="tram rail_urban rail rail_electric rail_fast ship container cable_car subway aircraft wheelchair scooter drone" speed="9.32" length="10.96" shape="938.25,2740.36 940.66,2742.76 942.14,2745.96 942.71,2749.95"/>
    </edge>
    <edge id=":11221904712_0" function="internal">
        <lane id=":11221904712_0_0" index="0" disallow="tram rail_urban rail rail_electric rail_fast ship container cable_car subway aircraft wheelchair scooter drone" speed="13.89" length="13.19" shape="870.07,1957.61 857.16,1960.30"/>
    </edge>
    <edge id=":11221904712_1" function="internal">
        <lane id=":11221904712_1_0" index="0" disallow="tram rail_urban rail rail_electric rail_fast ship container cable_car subway aircraft wheelchair scooter drone" speed="7.95" length="4.09" shape="870.07,1957.61 866.15,1957.86 866.00,1957.80"/>
    </edge>
    <edge id=":11221904712_6" function="internal">
        <lane id=":11221904712_6_0" index="0" disallow="tram rail_urban rail rail_electric rail_fast ship container cable_car subway aircraft wheelchair scooter drone" speed="7.95" length="10.21" shape="866.00,1957.80 863.12,1956.78 860.98,1954.37 859.74,1950.64"/>
    </edge>
    <edge id=":11221904712_2" function="internal">
        <lane id=":11221904712_2_0" index="0" disallow="tram rail_urban rail rail_electric rail_fast ship container cable_car subway aircraft wheelchair scooter drone" speed="6.45" length="9.03" shape="862.89,1950.07 863.67,1952.43 865.02,1953.95 866.94,1954.63 869.42,1954.47"/>
    </edge>
    <edge id=":11221904712_3" function="internal">
        <lane id=":11221904712_3_0" index="0" disallow="tram rail_urban rail rail_electric rail_fast ship container cable_car subway aircraft wheelchair scooter drone" speed="7.83" length="13.27" shape="862.89,1950.07 863.12,1953.98 862.24,1956.98 860.26,1959.09 857.16,1960.30"/>
    </edge>
    <edge id=":11221904712_4" function="internal">
        <lane id=":11221904712_4_0" index="0" disallow="tram rail_urban rail rail_electric rail_fast ship container cable_car subway aircraft wheelchair scooter drone" speed="6.30" length="8.22" shape="856.50,1957.17 858.30,1956.43 859.44,1955.09 859.92,1953.16 859.74,1950.64"/>
    </edge>
    <edge id=":11221904712_5" function="internal">
        <lane id=":11221904712_5_0" index="0" disallow="tram rail_urban rail rail_electric rail_fast ship container cable_car subway aircraft wheelchair scooter drone" speed="13.89" length="13.19" shape="856.50,1957.17 869.42,1954.47"/>
    </edge>
    <edge id=":11222004603_0" function="internal">
        <lane id=":11222004603_0_0" index="0" disallow="tram rail_urban rail rail_electric rail_fast ship container cable_car subway aircraft wheelchair scooter drone" speed="6.49" length="9.03" shape="1007.53,1951.61 1007.11,1949.17 1006.01,1947.45 1004.22,1946.46 1001.76,1946.20"/>
    </edge>
    <edge id=":11222004603_1" function="internal">
        <lane id=":11222004603_1_0" index="0" disallow="tram rail_urban rail rail_electric rail_fast ship container cable_car subway aircraft wheelchair scooter drone" speed="8.02" length="14.20" shape="1007.53,1951.61 1007.97,1947.73 1009.53,1944.92 1012.22,1943.17 1016.04,1942.48"/>
    </edge>
    <edge id=":11222004603_2" function="internal">
        <lane id=":11222004603_2_0" index="0" disallow="tram rail_urban rail rail_electric rail_fast ship container cable_car subway aircraft wheelchair scooter drone" speed="6.53" length="9.07" shape="1016.15,1945.68 1013.72,1946.12 1012.00,1947.24 1011.01,1949.04 1010.73,1951.51"/>
    </edge>
    <edge id=":11222004603_3" function="internal">
        <lane id=":11222004603_3_0" index="0" disallow="tram rail_urban rail rail_electric rail_fast ship container cable_car subway aircraft wheelchair scooter drone" speed="13.89" length="14.40" shape="1016.15,1945.68 1001.76,1946.20"/>
    </edge>
    <edge id=":11222004603_4" function="internal">
        <lane id=":11222004603_4_0" index="0" disallow="tram rail_urban rail rail_electric rail_fast ship container cable_car subway aircraft wheelchair scooter drone" speed="13.89" length="14.40" shape="1001.64,1943.00 1016.04,1942.48"/>
    </edge>
    <edge id=":11222004603_5" function="internal">
        <lane id=":11222004603_5_0" index="0" disallow="tram rail_urban rail rail_electric rail_fast ship container cable_car subway aircraft wheelchair scooter drone" speed="7.99" length="4.07" shape="1001.64,1943.00 1005.52,1943.42 1005.67,1943.50"/>
    </edge>
    <edge id=":11222004603_6" function="internal">
        <lane id=":11222004603_6_0" index="0" disallow="tram rail_urban rail rail_electric rail_fast ship container cable_car subway aircraft wheelchair scooter drone" speed="7.99" length="10.15" shape="1005.67,1943.50 1008.33,1944.97 1010.07,1947.67 1010.73,1951.51"/>
    </edge>
    <edge id=":11222045528_0" function="internal">
        <lane id=":11222045528_0_0" index="0" disallow="tram rail_urban rail rail_electric rail_fast ship container cable_car subway aircraft wheelchair scooter drone" speed="22.22" length="9.44" shape="1146.11,2459.01 1141.49,2450.78"/>
    </edge>
    <edge id=":11222045528_1" function="internal">
        <lane id=":11222045528_1_0" index="0" allow="pedestrian delivery bicycle" speed="6.78" length="3.36" shape="1146.11,2459.01 1145.04,2456.24 1145.06,2455.85"/>
    </edge>
    <edge id=":11222045528_6" function="internal">
        <lane id=":11222045528_6_0" index="0" allow="pedestrian delivery bicycle" speed="6.78" length="7.33" shape="1145.06,2455.85 1145.17,2453.87 1146.51,2451.91 1149.05,2450.36"/>
    </edge>
    <edge id=":11222045528_2" function="internal">
        <lane id=":11222045528_2_0" index="0" allow="pedestrian delivery bicycle" speed="4.93" length="5.13" shape="1150.31,2453.30 1149.09,2454.04 1148.45,2454.98 1148.39,2456.12 1148.90,2457.45"/>
    </edge>
    <edge id=":11222045528_3" function="internal">
        <lane id=":11222045528_3_0" index="0" allow="pedestrian delivery bicycle" speed="7.15" length="10.22" shape="1150.31,2453.30 1147.52,2454.10 1145.12,2453.95 1143.11,2452.84 1141.49,2450.78"/>
    </edge>
    <edge id=":11222045528_4" function="internal">
        <lane id=":11222045528_4_0" index="0" allow="pedestrian delivery bicycle" speed="5.41" length="5.45" shape="1144.29,2449.22 1145.12,2450.25 1146.19,2450.78 1147.50,2450.82 1149.05,2450.36"/>
    </edge>
    <edge id=":11222045528_5" function="internal">
        <lane id=":11222045528_5_0" index="0" disallow="tram rail_urban rail rail_electric rail_fast ship container cable_car subway aircraft wheelchair scooter drone" speed="22.22" length="9.44" shape="1144.29,2449.22 1148.90,2457.45"/>
    </edge>
    <edge id=":11222045533_0" function="internal">
        <lane id=":11222045533_0_0" index="0" disallow="tram rail_urban rail rail_electric rail_fast ship container cable_car subway aircraft wheelchair scooter drone" speed="22.22" length="9.46" shape="1153.25,2476.39 1152.70,2473.63 1152.44,2471.69 1151.97,2469.83 1150.77,2467.33"/>
    </edge>
    <edge id=":11222045533_1" function="internal">
        <lane id=":11222045533_1_0" index="0" allow="pedestrian delivery bicycle" speed="6.96" length="3.60" shape="1153.25,2476.39 1152.97,2473.68 1153.23,2472.84"/>
    </edge>
    <edge id=":11222045533_6" function="internal">
        <lane id=":11222045533_6_0" index="0" allow="pedestrian delivery bicycle" speed="6.96" length="6.58" shape="1153.23,2472.84 1153.65,2471.49 1155.28,2469.82 1157.87,2468.67"/>
    </edge>
    <edge id=":11222045533_2" function="internal">
        <lane id=":11222045533_2_0" index="0" allow="pedestrian delivery bicycle" speed="5.16" length="5.15" shape="1158.76,2471.74 1157.43,2472.33 1156.58,2473.16 1156.22,2474.26 1156.35,2475.61"/>
    </edge>
    <edge id=":11222045533_3" function="internal">
        <lane id=":11222045533_3_0" index="0" allow="pedestrian delivery bicycle" speed="7.41" length="9.92" shape="1158.76,2471.74 1156.48,2471.98 1154.39,2471.33 1152.49,2469.78 1150.77,2467.33"/>
    </edge>
    <edge id=":11222045533_4" function="internal">
        <lane id=":11222045533_4_0" index="0" allow="pedestrian delivery bicycle" speed="5.38" length="4.83" shape="1153.98,2466.51 1154.82,2467.71 1155.74,2468.46 1156.76,2468.78 1157.87,2468.67"/>
    </edge>
    <edge id=":11222045533_5" function="internal">