<additional>
    <poly id="industrial_0" type="industrial" color="235,219,233" fill="true" layer="-1" shape="998.05,2909.45 893.15,2934.24 941.78,3020.93 891.41,3058.91 920.27,3097.54 742.01,3235.82 716.86,3232.48 690.57,3196.47 627.14,3101.19 644.68,3078.82 764.92,3048.65 758.02,2883.13 992.23,2845.76 998.05,2909.45"/>
    <poly id="residential_1" type="residential" color="220,220,220" fill="true" layer="-1" shape="753.05,3681.09 824.52,3619.95 909.26,3503.83 909.49,3484.40 894.04,3453.64 881.98,3420.21 873.21,3410.04 870.56,3397.89 867.94,3380.01 850.01,3369.14 823.20,3368.67 778.05,3373.83 783.87,3326.70 780.23,3294.71 759.78,3295.52 750.38,3275.93 716.66,3302.05 678.89,3322.91 643.57,3349.78 617.18,3365.45 573.65,3404.93 586.68,3436.18 598.91,3431.52 615.19,3433.63 628.90,3478.34 629.88,3481.57 644.81,3479.62 650.13,3502.57 642.71,3507.85 664.09,3559.95 670.80,3576.84 679.65,3571.49 706.55,3622.07 724.48,3615.46 753.05,3681.09"/>
    <poly id="building_2" type="building" color="200,200,200" fill="true" layer="2" shape="1121.60,2994.55 1112.96,2984.00 1113.24,2981.76 1118.99,2977.12 1128.62,2988.89 1121.60,2994.55"/>
    <poly id="water_3" type="water" color="170,211,223" fill="true" layer="0" shape="3653.66,6398.83 3661.73,6362.81 3663.49,6307.94 3657.08,6265.47 3657.96,6237.68 3661.91,6186.48 3674.08,6110.46 3675.83,6057.79 3674.69,5994.13 3667.81,5901.90 3666.66,5837.51 3668.91,5687.54 3670.60,5644.39 3670.86,5593.90 3673.28,5555.14 3669.10,5508.29 3642.90,5447.42 3617.49,5377.06 3597.80,5338.17 3560.90,5211.41 3547.90,5160.85 3529.01,5111.74 3521.80,5079.51 3514.62,5045.81 3516.18,5026.80 3524.46,4993.91 3545.22,4966.95 3577.74,4945.90 3691.36,4904.79 3742.98,4891.89 3761.44,4883.20 3766.66,4870.78 3768.24,4850.31 3765.41,4829.07 3735.69,4737.47 3725.64,4686.20 3729.44,4662.07 3733.27,4634.29 3746.83,4575.83 3744.06,4542.88 3740.62,4494.58 3737.17,4449.19 3733.59,4427.96 3736.64,4408.96 3741.88,4392.15 3744.91,4377.54 3750.38,4316.10 3751.26,4289.77 3748.38,4275.12 3739.19,4277.05 3728.28,4276.43 3718.29,4279.83 3708.67,4281.15 3697.52,4283.77 3692.87,4260.64 3706.07,4255.19 3722.34,4250.62 3733.11,4247.37 3744.87,4243.64 3743.33,4195.55 3771.16,4142.80 3774.17,4113.44 3768.38,4091.11 3758.44,4071.69 3749.48,4049.44 3719.21,4035.39 3702.59,4025.12 3697.72,4014.04 3689.24,3986.13 3693.84,3970.30 3717.11,3952.33 3734.42,3917.21 3748.18,3884.41 3751.31,3850.96 3768.85,3772.41 3777.35,3729.01 3787.68,3673.31 3782.00,3627.50 3777.92,3616.91 3764.36,3610.98 3749.01,3609.72 3734.24,3608.47 3720.08,3607.22 3711.24,3602.49 3699.51,3584.82 3676.73,3534.22 3641.03,3469.48 3631.10,3445.94 3627.67,3424.79 3625.50,3386.04 3630.67,3299.21 3625.46,3279.81 3618.51,3253.36 3613.31,3229.27 3608.09,3209.29 3596.93,3198.07 3579.26,3188.60 3565.07,3188.53 3526.59,3203.58 3505.20,3228.13 3481.67,3262.19 3465.45,3291.78 3448.33,3333.40 3426.47,3385.86 3410.98,3441.67 3400.53,3474.10 3406.94,3494.68 3415.69,3513.51 3418.00,3526.43 3410.81,3544.00 3348.32,3631.14 3329.33,3649.24 3300.31,3662.58 3251.83,3668.79 3214.04,3664.48 3158.55,3657.15 3116.64,3648.14 3040.51,3632.48 3015.13,3627.07 2989.81,3611.09 2963.31,3592.76 2936.21,3579.13 2919.11,3573.16 2903.16,3572.50 2881.28,3576.50 2859.99,3581.08 2835.71,3591.52 2817.89,3609.62 2807.79,3621.31 2804.16,3636.56 2810.00,3651.84 2811.13,3661.24 2809.25,3681.77 2798.55,3693.45 2777.83,3702.74 2703.10,3761.05 2690.55,3772.00 2680.61,3785.56 2670.98,3796.77 2662.64,3806.62 2659.71,3811.77 2657.85,3828.32 2655.41,3841.80 2632.21,3872.20 2599.53,3910.19 2545.55,3951.00 2495.81,3973.63 2476.81,3989.97 2448.97,4006.26 2428.78,4024.94 2421.02,4041.92 2416.78,4061.27 2420.78,4087.69 2441.36,4107.17 2479.66,4127.32 2516.12,4159.79 2536.08,4183.96 2551.05,4212.27 2568.04,4234.85 2592.92,4274.05 2632.27,4321.79 2653.96,4352.43 2651.48,4377.06 2639.51,4406.35 2612.20,4432.62 2560.65,4462.29 2523.38,4472.66 2450.57,4498.11 2400.84,4518.98 2340.45,4545.68 2277.16,4559.43 2246.43,4559.86 2144.78,4566.39 2041.91,4579.95 1986.98,4578.49 1966.27,4584.84 1939.67,4588.81 1839.76,4601.22 1810.80,4602.83 1773.60,4600.29 1751.35,4588.89 1734.11,4580.72 1716.77,4565.61 1699.48,4540.29 1691.92,4512.42 1690.25,4491.87 1694.75,4482.10 1695.65,4476.64 1706.37,4461.43 1722.41,4442.14 1783.00,4378.48 1833.26,4315.83 1853.38,4292.60 1878.68,4272.50 1892.50,4257.14 1897.46,4242.59 1905.54,4216.53 1900.28,4205.35 1874.24,4182.28 1834.69,4152.19 1778.41,4120.21 1662.51,4024.09 1648.69,4012.80 1623.38,3995.21 1580.52,3968.88 1494.67,3920.96 1470.54,3902.05 1462.94,3886.76 1453.08,3850.90 1442.01,3819.74 1435.92,3798.87 1426.32,3769.77 1405.90,3718.01 1405.42,3705.36 1401.21,3595.32 1408.78,3502.04 1413.38,3409.92 1412.02,3328.91 1412.32,3269.05 1407.15,3242.02 1398.42,3216.14 1372.52,3197.24 1354.80,3196.55 1324.08,3195.81 1296.87,3200.96 1270.81,3214.32 1250.05,3229.48 1232.48,3242.75 1209.14,3260.38 1161.71,3291.83 1105.37,3333.80 1059.06,3377.59 1026.37,3414.98 1005.24,3449.80 975.78,3489.27 881.15,3624.95 819.28,3708.57 737.17,3822.60 693.77,3875.79 665.89,3899.13 634.49,3915.40 597.81,3925.78 385.03,3944.65 305.88,3940.15 277.02,3939.20 61.91,3935.98 -7.34,3920.02 -132.98,3920.89 -166.01,3910.75 -179.53,3896.60 -186.53,3878.95 -200.49,3834.87 -214.87,3757.90 -227.48,3682.71 -222.29,3590.59 -214.65,3482.64 -193.37,3363.59 -181.14,3280.32 -182.75,3249.19 -197.74,3175.75 -228.77,3119.84 -235.17,3101.03 -247.28,3043.44 -260.37,2943.60 -265.29,2866.09 -294.81,2743.28 -300.37,2675.75 -314.09,2584.71 -312.71,2547.15 -307.28,2523.10 -294.80,2509.67 -281.80,2508.56 -235.13,2509.97 -139.37,2499.31 24.90,2494.27 55.68,2483.27 74.68,2465.76 88.99,2438.84 90.28,2417.72 80.44,2376.57 53.89,2312.03 29.27,2217.25 45.52,2156.88 64.08,2109.43 91.46,2069.66 119.36,2043.97 139.65,2004.16 148.68,1971.34 147.28,1897.37 155.42,1806.44 170.47,1751.34 182.44,1720.29 206.19,1696.94 223.93,1694.67 251.04,1707.73 281.61,1737.23 305.11,1764.94 323.39,1772.07 341.10,1772.74 357.13,1759.33 381.63,1703.69 385.94,1671.43 382.53,1644.41 368.43,1626.15 289.39,1602.27 39.75,1545.24 -107.86,1526.89 -195.31,1528.20 -230.19,1532.73 -259.76,1539.62 -281.65,1543.62 -311.18,1543.47 -338.94,1538.64 -351.83,1522.39 -361.60,1503.74 -365.37,1482.27 -324.54,1378.47 -286.25,1285.92 -253.31,1197.45 -244.80,1151.13 -247.56,1112.37 -258.03,1078.87 -279.21,1061.74 -318.08,1035.13 -346.99,1029.11 -363.56,1033.72 -385.49,1048.28 -400.96,1068.17 -414.64,1086.88 -422.46,1115.01 -429.77,1156.65 -434.26,1228.82 -448.02,1262.80 -482.51,1306.65 -507.41,1324.71 -539.39,1338.64 -562.46,1343.22 -599.68,1342.44 -639.19,1327.58 -726.34,1270.79 -765.24,1250.05 -795.92,1242.85 -828.39,1236.22 -861.98,1219.63 -878.45,1204.86 -895.20,1169.17 -902.78,1138.84 -908.77,1111.97 -931.69,1102.46 -950.90,1109.17 -973.73,1119.86 -997.46,1137.94 -1088.73,1195.00 -1106.92,1169.08 -1034.01,1122.50 -982.46,1092.23 -951.64,1074.20 -930.93,1067.26 -917.33,1064.38 -904.92,1065.63 -888.41,1072.16 -877.26,1086.90 -870.99,1132.13 -871.72,1158.53 -866.49,1177.34 -851.80,1193.26 -826.43,1200.44 -803.41,1203.48 -769.73,1204.83 -749.66,1207.86 -729.66,1226.74 -683.77,1263.37 -643.14,1290.58 -607.17,1304.84 -571.77,1315.00 -542.19,1308.70 -519.10,1297.66 -492.36,1268.45 -479.81,1237.98 -468.33,1188.15 -453.82,1123.65 -449.48,1081.42 -438.73,1060.35 -426.81,1039.28 -419.06,1026.40 -408.97,1016.47 -396.01,1007.76 -386.44,1001.33 -365.11,990.86 -345.01,988.62 -324.95,992.83 -297.85,1007.05 -261.37,1037.76 -241.44,1069.56 -223.36,1115.43 -217.65,1156.55 -224.97,1201.70 -246.51,1255.60 -314.78,1434.87 -327.30,1458.86 -321.50,1480.02 -305.60,1490.68 -280.27,1505.47 -251.34,1508.55 -203.43,1498.81 -136.06,1494.46 -76.99,1498.87 89.47,1530.23 235.30,1549.17 350.84,1600.24 386.26,1608.63 401.58,1613.99 413.93,1627.55 418.60,1636.96 426.14,1665.18 398.00,1739.00 380.67,1775.89 365.22,1795.77 347.41,1810.93 327.31,1813.18 303.73,1803.08 283.13,1786.54 264.35,1762.38 245.56,1740.57 236.74,1730.55 223.76,1726.96 216.06,1731.61 208.36,1735.69 199.43,1749.14 190.41,1780.79 181.93,1938.64 162.57,2026.59 155.34,2054.13 134.53,2081.02 109.00,2105.55 80.47,2138.86 70.31,2161.11 58.33,2193.92 54.44,2213.12 57.54,2246.04 70.32,2290.14 80.30,2323.98 94.13,2357.86 112.32,2382.61 115.77,2402.58 113.87,2427.22 98.24,2478.80 81.57,2503.36 21.20,2526.54 -18.41,2529.27 -76.34,2535.43 -134.20,2528.09 -159.60,2527.97 -195.08,2534.25 -230.56,2540.52 -258.94,2543.90 -273.74,2550.86 -283.23,2558.45 -283.88,2569.01 -283.98,2588.96 -261.12,2742.28 -247.99,2833.90 -231.36,2931.42 -208.34,3053.03 -194.37,3095.36 -176.87,3138.29 -154.27,3224.69 -149.19,3272.26 -145.25,3311.02 -178.57,3473.43 -195.74,3597.76 -194.24,3651.78 -188.01,3704.63 -179.60,3794.47 -173.91,3836.76 -168.67,3853.21 -154.56,3864.45 -141.01,3872.72 -114.46,3879.90 -39.46,3885.57 138.86,3907.02 233.97,3908.09 280.78,3908.81 456.66,3915.08 525.77,3917.19 582.55,3905.74 641.76,3880.23 676.17,3852.23 745.14,3766.29 842.69,3635.32 942.06,3498.49 1046.16,3358.74 1091.36,3301.45 1125.75,3275.79 1181.48,3239.70 1223.13,3213.52 1232.44,3207.68 1278.06,3184.42 1333.08,3169.45 1360.26,3168.42 1380.94,3169.11 1408.04,3183.33 1425.69,3198.10 1440.86,3233.97 1447.16,3273.33 1450.43,3327.34 1440.49,3424.14 1452.05,3474.09 1453.67,3502.86 1459.48,3521.08 1462.88,3549.86 1468.76,3558.10 1479.34,3566.37 1491.07,3584.63 1488.02,3602.81 1485.56,3621.58 1478.44,3628.00 1463.66,3628.51 1453.62,3630.23 1437.65,3631.90 1428.76,3637.13 1425.14,3652.97 1431.36,3708.17 1440.06,3739.32 1455.20,3782.25 1474.98,3841.63 1483.69,3872.20 1501.31,3893.42 1637.38,3972.16 1740.16,4039.79 1776.73,4071.83 1880.49,4145.97 1911.09,4168.42 1926.40,4179.66 1936.96,4195.56 1943.95,4212.62 1945.63,4230.23 1944.39,4243.14 1939.56,4264.25 1909.82,4303.42 1862.35,4341.91 1794.01,4420.21 1742.34,4473.94 1732.80,4490.33 1732.73,4504.99 1737.94,4525.56 1745.53,4543.80 1760.23,4555.61 1777.33,4563.33 1800.35,4568.14 1847.03,4566.62 1906.16,4555.77 1955.22,4551.33 2025.57,4541.72 2045.68,4537.12 2055.17,4529.54 2061.74,4517.83 2072.75,4507.16 2089.30,4511.20 2100.53,4515.66 2107.20,4522.18 2133.14,4532.88 2156.75,4535.93 2183.34,4536.06 2260.14,4537.04 2325.23,4517.42 2419.34,4482.11 2476.93,4454.37 2513.71,4436.04 2537.34,4420.00 2546.45,4395.93 2540.70,4348.47 2556.05,4300.47 2553.32,4278.54 2523.98,4240.24 2446.99,4161.19 2407.03,4119.32 2394.76,4091.09 2388.98,4068.16 2387.32,4045.27 2393.33,4024.75 2405.84,4005.45 2439.11,3969.24 2527.43,3912.75 2574.34,3867.80 2595.16,3839.15 2612.97,3823.97 2623.65,3812.88 2627.26,3799.99 2629.70,3786.49 2634.50,3771.85 2642.25,3756.63 2663.12,3720.35 2679.21,3694.01 2710.62,3674.22 2736.68,3662.62 2749.73,3653.29 2762.21,3638.10 2767.60,3622.86 2771.26,3601.17 2772.54,3580.63 2775.01,3561.86 2776.86,3547.20 2783.41,3537.26 2794.65,3532.61 2808.84,3531.51 2823.58,3537.46 2840.67,3544.59 2862.52,3547.05 2920.39,3553.21 2968.16,3570.48 2992.88,3589.40 3013.47,3605.93 3028.78,3615.99 3039.39,3618.40 3047.71,3611.98 3044.21,3603.74 3031.88,3586.65 3024.27,3573.70 3004.86,3555.99 2996.64,3546.57 2998.46,3536.00 3007.97,3527.26 3017.42,3526.72 3032.78,3526.80 3042.19,3536.23 3048.04,3548.01 3046.75,3567.96 3052.54,3591.46 3057.79,3603.81 3063.66,3612.06 3068.38,3613.26 3073.68,3616.80 3082.54,3617.45 3095.57,3611.64 3108.62,3600.55 3121.64,3596.51 3138.75,3600.12 3158.21,3607.26 3175.92,3608.53 3208.45,3603.41 3243.94,3594.79 3293.74,3561.60 3342.39,3521.93 3369.16,3486.85 3384.11,3451.13 3387.85,3412.41 3415.42,3338.01 3425.75,3293.50 3432.32,3268.84 3439.57,3237.77 3452.72,3207.31 3468.84,3175.11 3490.25,3147.04 3505.12,3130.11 3516.38,3122.53 3530.57,3119.67 3540.01,3122.65 3551.21,3128.59 3564.79,3129.83 3575.45,3124.01 3592.04,3114.70 3605.65,3110.08 3612.74,3111.88 3620.98,3116.61 3634.43,3144.27 3652.42,3208.34 3676.58,3316.87 3678.97,3327.62 3688.20,3373.46 3685.60,3418.63 3691.20,3448.57 3699.47,3477.40 3705.25,3502.67 3720.44,3536.21 3741.55,3567.42 3771.59,3585.77 3785.10,3599.34 3796.85,3611.73 3803.29,3622.33 3807.94,3639.37 3799.77,3732.66 3794.78,3784.28 3788.05,3821.44 3787.08,3844.67 3784.31,3867.57 3784.80,3886.94 3773.96,3926.80 3756.58,3973.07 3753.51,3997.13 3781.48,4071.22 3795.51,4101.23 3805.45,4122.41 3808.32,4137.09 3808.25,4150.60 3797.52,4168.15 3786.83,4181.60 3779.08,4193.29 3775.98,4222.63 3773.07,4327.08 3763.31,4386.90 3763.66,4434.44 3776.37,4489.68 3781.00,4508.49 3787.41,4524.36 3782.44,4572.47 3772.69,4630.53 3759.05,4641.02 3751.28,4658.00 3786.03,4792.00 3798.85,4826.70 3801.71,4845.49 3802.18,4868.97 3795.58,4887.71 3780.11,4909.36 3724.46,4931.37 3654.04,4953.31 3596.64,4971.80 3580.65,4978.75 3564.63,4993.35 3559.78,5017.97 3558.97,5058.46 3554.83,5067.93 3553.59,5070.76 3552.37,5078.97 3566.96,5112.50 3591.99,5188.38 3614.66,5257.13 3613.93,5284.72 3615.60,5304.68 3624.37,5322.33 3637.74,5365.83 3661.03,5429.33 3664.42,5459.87 3673.79,5478.12 3680.24,5486.37 3684.88,5502.82 3695.84,5552.77 3700.93,5597.40 3698.11,5685.43 3696.14,5839.18 3699.34,6021.15 3700.39,6160.25 3683.27,6269.91 3684.93,6291.05 3694.70,6343.92 3689.87,6364.44 3686.83,6383.20 3681.67,6412.34 3653.66,6398.83"/>
    <poly id="building_4" type="building" color="200,200,200" fill="true" layer="2" shape="1583.81,2657.89 1577.93,2648.94 1584.13,2644.92 1601.84,2646.19 1583.81,2657.89"/>
    <poly id="water_5" type="water" color="170,211,223" fill="true" layer="0" shape="1695.98,2781.14 1678.28,2777.53 1653.58,2753.93 1650.71,2738.07 1674.13,2721.86 1706.68,2768.29 1695.98,2781.14"/>
    <poly id="building_6" type="building" color="200,200,200" fill="true" layer="2" shape="1652.87,2672.89 1647.48,2662.77 1661.60,2655.35 1666.99,2665.46 1652.87,2672.89"/>
    <poly id="building_7" type="building" color="200,200,200" fill="true" layer="2" shape="705.43,3131.42 734.17,3165.81 820.72,3094.44 792.01,3060.07 705.43,3131.42"/>
    <poly id="building_8" type="building" color="200,200,200" fill="true" layer="2" shape="1585.07,2921.02 1595.86,2924.66 1593.00,2930.01 1588.32,2941.73 1580.09,2938.63 1583.50,2927.15 1585.07,2921.02"/>
    <poly id="building_9" type="building" color="200,200,200" fill="true" layer="2" shape="1488.13,2697.29 1493.01,2706.18 1511.14,2696.35 1506.26,2687.47 1488.13,2697.29"/>
    <poly id="building_10" type="building" color="200,200,200" fill="true" layer="2" shape="1595.33,3447.46 1591.33,3431.57 1598.11,3429.89 1603.04,3428.66 1607.04,3444.55 1595.33,3447.46"/>
    <poly id="building_11" type="building" color="200,200,200" fill="true" layer="2" shape="1217.88,2375.73 1227.15,2375.17 1226.42,2362.98 1217.14,2363.53 1217.88,2375.73"/>
    <poly id="building_12" type="building" color="200,200,200" fill="true" layer="2" shape="932.39,2371.78 941.65,2374.17 951.98,2358.36 928.55,2349.83 923.99,2357.83 935.40,2362.19 932.39,2371.78"/>
    <poly id="building_13" type="building" color="200,200,200" fill="true" layer="2" shape="983.28,3322.37 983.11,3296.58 1012.24,3296.37 1011.32,3322.94 983.28,3322.37"/>
    <poly id="building_14" type="building" color="200,200,200" fill="true" layer="2" shape="1154.84,2963.33 1143.87,2951.75 1157.00,2939.47 1167.98,2951.05 1154.84,2963.33"/>
    <poly id="residential_15" type="residential" color="220,220,220" fill="true" layer="-1" shape="1574.89,3355.99 1594.16,3399.52 1451.53,3448.97 1445.83,3408.75 1449.23,3379.13 1496.50,3367.41 1520.51,3361.58 1530.74,3359.66 1549.51,3356.14 1560.13,3354.15 1574.89,3355.99"/>
    <poly id="building_16" type="building" color="200,200,200" fill="true" layer="2" shape="1534.52,3386.49 1530.74,3359.66 1549.51,3356.14 1553.46,3381.04 1534.52,3386.49"/>
    <poly id="building_17" type="building" color="200,200,200" fill="true" layer="2" shape="1082.04,3015.61 1089.64,3008.96 1099.51,3020.08 1091.90,3026.74 1082.04,3015.61"/>
    <poly id="building_18" type="building" color="200,200,200" fill="true" layer="2" shape="1004.35,2955.37 979.23,2916.69 965.69,2925.36 981.56,2949.79 975.56,2953.63 974.02,2951.25 971.10,2953.11 962.13,2939.32 942.09,2952.16 952.61,2968.35 946.08,2972.53 932.38,2951.43 946.72,2942.24 938.29,2929.26 910.27,2947.22 941.67,2995.55 955.26,2986.84 954.46,2985.60 961.89,2980.85 966.95,2988.63 978.06,2981.51 973.00,2973.72 989.57,2963.10 990.37,2964.34 1004.35,2955.37"/>
    <poly id="building_19" type="building" color="200,200,200" fill="true" layer="2" shape="1444.50,2516.59 1444.50,2491.54 1466.20,2491.71 1466.14,2516.56 1457.57,2516.80 1457.40,2521.47 1453.19,2521.32 1453.29,2516.85 1444.50,2516.59"/>
    <poly id="building_20" type="building" color="200,200,200" fill="true" layer="2" shape="1463.43,2510.89 1463.65,2495.05 1448.97,2494.49 1448.32,2511.72 1452.96,2511.54 1452.98,2508.68 1456.35,2508.28 1456.54,2511.35 1463.43,2510.89"/>
    <poly id="building_21" type="building" color="200,200,200" fill="true" layer="2" shape="1326.70,2557.39 1337.72,2553.11 1334.12,2543.96 1323.10,2548.25 1326.70,2557.39"/>
    <poly id="building_22" type="building" color="200,200,200" fill="true" layer="2" shape="1351.42,2545.47 1351.53,2548.23 1365.06,2547.74 1364.61,2535.29 1361.03,2535.41 1351.06,2535.78 1351.42,2545.47"/>
    <poly id="building_23" type="building" color="200,200,200" fill="true" layer="2" shape="1374.87,2548.86 1382.71,2548.20 1382.40,2544.61 1381.70,2536.27 1373.86,2536.92 1374.87,2548.86"/>
    <poly id="building_24" type="building" color="200,200,200" fill="true" layer="2" shape="1382.53,2544.59 1390.80,2544.28 1390.65,2540.49 1396.67,2540.25 1396.23,2528.78 1388.70,2529.07 1388.99,2536.62 1382.22,2536.87 1382.53,2544.59"/>
    <poly id="building_25" type="building" color="200,200,200" fill="true" layer="2" shape="1374.95,2530.20 1384.69,2530.65 1385.38,2515.70 1375.30,2515.24 1374.60,2530.18 1374.95,2530.20"/>
    <poly id="building_26" type="building" color="200,200,200" fill="true" layer="2" shape="1317.35,2528.20 1328.47,2528.50 1328.79,2516.47 1317.67,2516.17 1317.35,2528.20"/>
    <poly id="building_27" type="building" color="200,200,200" fill="true" layer="2" shape="1345.30,2533.38 1362.43,2533.52 1362.53,2520.73 1345.40,2520.59 1345.30,2533.38"/>
    <poly id="building_28" type="building" color="200,200,200" fill="true" layer="2" shape="1352.92,2516.77 1364.49,2515.95 1363.91,2507.85 1352.34,2508.67 1352.92,2516.77"/>
    <poly id="building_29" type="building" color="200,200,200" fill="true" layer="2" shape="1391.74,2523.78 1396.92,2522.71 1406.64,2520.70 1404.33,2509.69 1389.44,2512.76 1391.74,2523.78"/>
    <poly id="building_30" type="building" color="200,200,200" fill="true" layer="2" shape="1398.87,2538.21 1409.41,2537.74 1408.78,2523.64 1398.24,2524.11 1398.87,2538.21"/>
    <poly id="building_31" type="building" color="200,200,200" fill="true" layer="2" shape="1413.80,2538.27 1423.25,2537.81 1422.53,2523.19 1413.09,2523.66 1413.80,2538.27"/>
    <poly id="building_32" type="building" color="200,200,200" fill="true" layer="2" shape="1410.19,2517.88 1411.56,2510.06 1421.86,2511.85 1420.49,2519.67 1410.19,2517.88"/>
    <poly id="building_33" type="building" color="200,200,200" fill="true" layer="2" shape="1411.73,2506.04 1412.52,2493.84 1421.74,2494.44 1420.94,2506.64 1411.73,2506.04"/>
    <poly id="building_34" type="building" color="200,200,200" fill="true" layer="2" shape="1324.58,2507.77 1341.40,2506.76 1340.60,2493.77 1335.07,2494.10 1334.27,2480.86 1330.28,2481.11 1329.87,2474.23 1324.82,2474.53 1325.36,2483.44 1326.06,2494.99 1323.82,2495.12 1324.58,2507.77"/>
    <poly id="building_35" type="building" color="200,200,200" fill="true" layer="2" shape="1387.32,2509.29 1398.77,2509.57 1399.02,2499.58 1387.57,2499.30 1387.32,2509.29"/>
    <poly id="building_36" type="building" color="200,200,200" fill="true" layer="2" shape="1359.53,2496.31 1376.27,2497.21 1376.94,2484.67 1360.19,2483.77 1359.53,2496.31"/>
    <poly id="building_37" type="building" color="200,200,200" fill="true" layer="2" shape="1342.95,2497.69 1352.45,2497.99 1352.82,2486.50 1343.32,2486.20 1342.95,2497.69"/>
    <poly id="building_38" type="building" color="200,200,200" fill="true" layer="2" shape="1366.31,2508.98 1376.94,2509.10 1377.05,2499.95 1366.41,2499.83 1366.31,2508.98"/>
    <poly id="water_39" type="water" color="170,211,223" fill="true" layer="0" shape="1433.07,2475.26 1432.96,2476.43 1432.50,2477.51 1431.72,2478.40 1430.70,2478.99 1429.55,2479.24 1428.38,2479.11 1427.30,2478.64 1426.43,2477.85 1425.81,2476.73 1425.61,2475.47 1425.85,2474.22 1426.50,2473.13 1427.50,2472.31 1428.70,2471.89 1429.98,2471.88 1431.19,2472.31 1432.18,2473.12 1432.79,2474.12 1433.07,2475.26"/>
    <poly id="building_40" type="building" color="200,200,200" fill="true" layer="2" shape="1497.90,2633.20 1502.87,2639.40 1513.61,2630.91 1502.09,2616.53 1495.44,2621.79 1502.00,2629.97 1497.90,2633.20"/>
    <poly id="building_41" type="building" color="200,200,200" fill="true" layer="2" shape="1551.21,3408.35 1547.76,3395.49 1561.56,3390.82 1564.15,3405.77 1551.21,3408.35"/>
    <poly id="building_42" type="building" color="200,200,200" fill="true" layer="2" shape="1562.73,3385.83 1574.84,3380.87 1578.41,3397.64 1567.15,3400.66 1562.73,3385.83"/>
    <poly id="building_43" type="building" color="200,200,200" fill="true" layer="2" shape="1474.49,3439.56 1484.90,3438.21 1477.73,3411.65 1467.60,3413.56 1474.49,3439.56"/>
    <poly id="building_44" type="building" color="200,200,200" fill="true" layer="2" shape="1499.85,3391.50 1496.50,3367.41 1518.66,3365.93 1522.15,3390.05 1499.85,3391.50"/>
    <poly id="building_45" type="building" color="200,200,200" fill="true" layer="2" shape="730.59,3391.22 730.42,3378.21 741.46,3378.08 741.62,3391.09 730.59,3391.22"/>
    <poly id="building_46" type="building" color="200,200,200" fill="true" layer="2" shape="715.08,3376.95 724.36,3376.10 723.24,3363.87 713.95,3364.72 715.08,3376.95"/>
    <poly id="building_47" type="building" color="200,200,200" fill="true" layer="2" shape="1384.26,2481.59 1398.53,2482.52 1399.58,2466.41 1385.31,2465.49 1384.26,2481.59"/>
    <poly id="building_48" type="building" color="200,200,200" fill="true" layer="2" shape="1322.92,2443.36 1340.67,2441.01 1339.11,2429.45 1321.37,2431.80 1322.92,2443.36"/>
    <poly id="building_49" type="building" color="200,200,200" fill="true" layer="2" shape="1403.38,2432.18 1418.26,2429.45 1415.87,2416.59 1413.82,2405.56 1398.94,2408.28 1400.90,2418.88 1403.38,2432.18"/>
    <poly id="building_50" type="building" color="200,200,200" fill="true" layer="2" shape="1347.75,2437.29 1359.89,2436.99 1359.40,2417.82 1347.27,2418.12 1347.75,2437.29"/>
    <poly id="building_51" type="building" color="200,200,200" fill="true" layer="2" shape="1327.39,2387.41 1349.13,2387.77 1349.45,2368.53 1327.71,2368.16 1327.39,2387.41"/>
    <poly id="building_52" type="building" color="200,200,200" fill="true" layer="2" shape="1267.68,2405.01 1277.21,2405.51 1277.96,2391.25 1268.44,2390.76 1267.68,2405.01"/>
    <poly id="building_53" type="building" color="200,200,200" fill="true" layer="2" shape="1474.62,2402.28 1491.98,2404.70 1494.01,2390.23 1476.66,2387.82 1474.62,2402.28"/>
    <poly id="building_54" type="building" color="200,200,200" fill="true" layer="2" shape="1540.81,2404.65 1555.24,2400.89 1550.11,2381.49 1535.68,2385.24 1540.81,2404.65"/>
    <poly id="building_55" type="building" color="200,200,200" fill="true" layer="2" shape="1395.03,2398.64 1406.35,2397.30 1404.29,2380.04 1392.96,2381.37 1395.03,2398.64"/>
    <poly id="building_56" type="building" color="200,200,200" fill="true" layer="2" shape="845.50,3455.57 849.72,3452.55 845.16,3449.86 843.72,3444.12 833.19,3446.70 834.05,3450.20 840.17,3450.98 835.56,3455.14 845.50,3455.57"/>
    <poly id="building_57" type="building" color="200,200,200" fill="true" layer="2" shape="845.89,2745.22 846.85,2739.03 849.86,2739.48 850.29,2736.69 856.64,2737.65 855.27,2746.65 845.89,2745.22"/>
    <poly id="building_58" type="building" color="200,200,200" fill="true" layer="2" shape="786.47,2760.44 785.08,2751.77 795.24,2750.16 796.82,2759.99 792.00,2759.57 786.47,2760.44"/>
    <poly id="building_59" type="building" color="200,200,200" fill="true" layer="2" shape="1496.36,2961.76 1496.51,2950.62 1506.38,2950.74 1506.25,2961.88 1496.36,2961.76"/>
    <poly id="building_60" type="building" color="200,200,200" fill="true" layer="2" shape="1534.33,2779.00 1531.94,2771.16 1534.31,2769.11 1534.32,2765.59 1539.75,2763.95 1543.51,2776.23 1534.33,2779.00"/>
    <poly id="building_61" type="building" color="200,200,200" fill="true" layer="2" shape="1217.84,3031.64 1215.79,3021.10 1234.11,3017.57 1236.16,3028.11 1217.84,3031.64"/>
    <poly id="building_62" type="building" color="200,200,200" fill="true" layer="2" shape="1156.14,2932.47 1155.86,2931.14 1158.82,2928.37 1160.13,2931.32 1156.14,2932.47"/>
    <poly id="building_63" type="building" color="200,200,200" fill="true" layer="2" shape="959.09,2463.71 958.69,2451.88 977.30,2451.26 977.69,2463.10 959.09,2463.71"/>
    <poly id="education_64" type="education" color="255,255,228" fill="true" layer="-1" shape="1086.09,2971.45 1061.81,2935.10 1084.12,2919.42 1036.78,2838.66 992.23,2845.76 998.05,2909.45 893.15,2934.24 941.78,3020.93 957.11,3008.55 978.41,3053.15 1086.09,2971.45"/>
    <poly id="industrial_65" type="industrial" color="235,219,233" fill="true" layer="-1" shape="1136.68,2958.40 1156.58,2993.71 1266.07,2957.59 1305.25,3094.25 1321.22,3147.45 1217.02,3191.82 1193.34,3142.11 1174.19,3074.51 1151.79,3008.07 1126.59,2967.16 1136.68,2958.40"/>
    <poly id="building_66" type="building" color="200,200,200" fill="true" layer="2" shape="776.73,2928.68 780.61,2976.83 814.79,2974.11 810.89,2925.96 776.73,2928.68"/>
    <poly id="building_67" type="building" color="200,200,200" fill="true" layer="2" shape="813.89,2881.34 763.89,2890.64 768.53,2915.14 818.52,2905.83 813.89,2881.34"/>
    <poly id="building_68" type="building" color="200,200,200" fill="true" layer="2" shape="823.65,2880.80 828.29,2905.40 953.46,2882.09 958.67,2909.74 997.62,2902.48 987.75,2850.23 823.65,2880.80"/>
    <poly id="building_69" type="building" color="200,200,200" fill="true" layer="2" shape="1006.79,2881.43 1018.35,2989.49 1048.72,2986.28 1037.16,2878.23 1006.79,2881.43"/>
    <poly id="building_70" type="building" color="200,200,200" fill="true" layer="2" shape="985.37,3028.06 988.85,3033.42 999.85,3026.38 996.36,3021.01 985.37,3028.06"/>
    <poly id="commercial_71" type="commercial" color="242,218,218" fill="true" layer="-1" shape="1491.28,2586.61 1578.04,2604.38 1617.29,2611.61 1628.99,2635.74 1605.31,2647.06 1527.39,2633.17 1510.50,2643.64 1481.02,2629.70 1470.71,2625.24 1477.86,2610.90 1487.91,2610.95 1491.28,2586.61"/>
    <poly id="building_72" type="building" color="200,200,200" fill="true" layer="2" shape="863.87,2638.46 882.17,2638.11 882.53,2656.30 864.23,2656.65 863.87,2638.46"/>
    <poly id="building_73" type="building" color="200,200,200" fill="true" layer="2" shape="795.85,2811.83 796.45,2826.77 788.32,2827.09 787.73,2812.16 795.85,2811.83"/>
    <poly id="building_74" type="building" color="200,200,200" fill="true" layer="2" shape="804.16,2563.34 817.27,2562.77 817.75,2573.73 804.64,2574.31 804.16,2563.34"/>
    <poly id="building_75" type="building" color="200,200,200" fill="true" layer="2" shape="853.81,2372.99 845.87,2371.79 846.56,2367.32 854.49,2368.51 853.81,2372.99"/>
    <poly id="building_76" type="building" color="200,200,200" fill="true" layer="2" shape="721.33,2619.58 721.70,2629.12 715.05,2629.37 714.68,2619.84 721.33,2619.58"/>
    <poly id="building_77" type="building" color="200,200,200" fill="true" layer="2" shape="890.14,2534.96 902.07,2533.00 903.74,2542.99 891.81,2544.95 890.14,2534.96"/>
    <poly id="building_78" type="building" color="200,200,200" fill="true" layer="2" shape="742.95,2558.54 757.10,2556.99 760.08,2583.64 744.92,2585.31 744.04,2577.48 745.06,2577.38 742.95,2558.54"/>
    <poly id="building_79" type="building" color="200,200,200" fill="true" layer="2" shape="785.34,2487.88 795.44,2486.37 796.49,2493.26 786.38,2494.76 785.34,2487.88"/>
    <poly id="building_80" type="building" color="200,200,200" fill="true" layer="2" shape="775.47,2528.65 775.17,2538.04 762.77,2537.65 763.07,2528.27 775.47,2528.65"/>
    <poly id="building_81" type="building" color="200,200,200" fill="true" layer="2" shape="830.66,2708.08 831.16,2721.72 823.50,2721.99 822.99,2708.35 830.66,2708.08"/>
    <poly id="building_82" type="building" color="200,200,200" fill="true" layer="2" shape="721.77,2373.38 714.69,2373.14 714.96,2364.93 722.05,2365.16 721.77,2373.38"/>
    <poly id="building_83" type="building" color="200,200,200" fill="true" layer="2" shape="834.83,2804.50 834.17,2816.79 825.20,2816.33 825.85,2804.03 834.83,2804.50"/>
    <poly id="building_84" type="building" color="200,200,200" fill="true" layer="2" shape="723.70,2521.24 723.04,2534.71 710.96,2534.13 711.61,2520.66 723.70,2521.24"/>
    <poly id="building_85" type="building" color="200,200,200" fill="true" layer="2" shape="781.50,2362.76 787.87,2363.67 783.37,2394.87 777.00,2393.97 781.50,2362.76"/>
    <poly id="building_86" type="building" color="200,200,200" fill="true" layer="2" shape="729.91,2654.67 744.66,2652.58 746.02,2662.06 731.27,2664.15 729.91,2654.67"/>
    <poly id="building_87" type="building" color="200,200,200" fill="true" layer="2" shape="808.79,2593.39 816.31,2593.76 815.56,2608.70 809.51,2608.40 809.74,2603.85 808.27,2603.77 808.79,2593.39"/>
    <poly id="building_88" type="building" color="200,200,200" fill="true" layer="2" shape="915.17,2654.33 894.80,2654.90 894.37,2639.83 906.46,2639.48 906.65,2645.77 914.91,2645.53 915.17,2654.33"/>
    <poly id="building_89" type="building" color="200,200,200" fill="true" layer="2" shape="854.52,2398.09 854.05,2408.05 841.67,2407.47 842.14,2397.52 854.52,2398.09"/>
    <poly id="building_90" type="building" color="200,200,200" fill="true" layer="2" shape="793.77,2386.78 803.22,2386.96 802.94,2401.05 793.49,2400.86 793.77,2386.78"/>