<additional>
    <poly id="industrial_0" type="industrial" color="235,219,233" fill="true" layer="-1" shape="998.05,2349.78 893.15,2374.57 941.78,2461.26 891.41,2499.24 920.27,2537.87 742.01,2676.15 716.86,2672.81 690.57,2636.80 627.14,2541.52 644.68,2519.15 764.92,2488.98 758.02,2323.46 992.23,2286.09 998.05,2349.78"/>
    <poly id="residential_1" type="residential" color="220,220,220" fill="true" layer="-1" shape="753.05,3121.42 824.52,3060.28 909.26,2944.16 909.49,2924.73 894.04,2893.97 881.98,2860.54 873.21,2850.37 870.56,2838.22 867.94,2820.34 850.01,2809.47 823.20,2809.00 778.05,2814.16 783.87,2767.03 780.23,2735.04 759.78,2735.85 750.38,2716.26 716.66,2742.38 678.89,2763.24 643.57,2790.11 617.18,2805.78 573.65,2845.26 586.68,2876.51 598.91,2871.85 615.19,2873.96 628.90,2918.67 629.88,2921.90 644.81,2919.95 650.13,2942.90 642.71,2948.18 664.09,3000.28 670.80,3017.17 679.65,3011.82 706.55,3062.40 724.48,3055.79 753.05,3121.42"/>
    <poly id="building_2" type="building" color="200,200,200" fill="true" layer="2" shape="1121.60,2434.88 1112.96,2424.33 1113.24,2422.09 1118.99,2417.45 1128.62,2429.22 1121.60,2434.88"/>
    <poly id="water_3" type="water" color="170,211,223" fill="true" layer="0" shape="3653.66,5839.16 3661.73,5803.14 3663.49,5748.27 3657.08,5705.80 3657.96,5678.01 3661.91,5626.81 3674.08,5550.79 3675.83,5498.12 3674.69,5434.46 3667.81,5342.23 3666.66,5277.84 3668.91,5127.87 3670.60,5084.72 3670.86,5034.23 3673.28,4995.47 3669.10,4948.62 3642.90,4887.75 3617.49,4817.39 3597.80,4778.50 3560.90,4651.74 3547.90,4601.18 3529.01,4552.07 3521.80,4519.84 3514.62,4486.14 3516.18,4467.13 3524.46,4434.24 3545.22,4407.28 3577.74,4386.23 3691.36,4345.12 3742.98,4332.22 3761.44,4323.53 3766.66,4311.11 3768.24,4290.64 3765.41,4269.40 3735.69,4177.80 3725.64,4126.53 3729.44,4102.40 3733.27,4074.62 3746.83,4016.16 3744.06,3983.21 3740.62,3934.91 3737.17,3889.52 3733.59,3868.29 3736.64,3849.29 3741.88,3832.48 3744.91,3817.87 3750.38,3756.43 3751.26,3730.10 3748.38,3715.45 3739.19,3717.38 3728.28,3716.76 3718.29,3720.16 3708.67,3721.48 3697.52,3724.10 3692.87,3700.97 3706.07,3695.52 3722.34,3690.95 3733.11,3687.70 3744.87,3683.97 3743.33,3635.88 3771.16,3583.13 3774.17,3553.77 3768.38,3531.44 3758.44,3512.02 3749.48,3489.77 3719.21,3475.72 3702.59,3465.45 3697.72,3454.37 3689.24,3426.46 3693.84,3410.63 3717.11,3392.66 3734.42,3357.54 3748.18,3324.74 3751.31,3291.29 3768.85,3212.74 3777.35,3169.34 3787.68,3113.64 3782.00,3067.83 3777.92,3057.24 3764.36,3051.31 3749.01,3050.05 3734.24,3048.80 3720.08,3047.55 3711.24,3042.82 3699.51,3025.15 3676.73,2974.55 3641.03,2909.81 3631.10,2886.27 3627.67,2865.12 3625.50,2826.37 3630.67,2739.54 3625.46,2720.14 3618.51,2693.69 3613.31,2669.60 3608.09,2649.62 3596.93,2638.40 3579.26,2628.93 3565.07,2628.86 3526.59,2643.91 3505.20,2668.46 3481.67,2702.52 3465.45,2732.11 3448.33,2773.73 3426.47,2826.19 3410.98,2882.00 3400.53,2914.43 3406.94,2935.01 3415.69,2953.84 3418.00,2966.76 3410.81,2984.33 3348.32,3071.47 3329.33,3089.57 3300.31,3102.91 3251.83,3109.12 3214.04,3104.81 3158.55,3097.48 3116.64,3088.47 3040.51,3072.81 3015.13,3067.40 2989.81,3051.42 2963.31,3033.09 2936.21,3019.46 2919.11,3013.49 2903.16,3012.83 2881.28,3016.83 2859.99,3021.41 2835.71,3031.85 2817.89,3049.95 2807.79,3061.64 2804.16,3076.89 2810.00,3092.17 2811.13,3101.57 2809.25,3122.10 2798.55,3133.78 2777.83,3143.07 2703.10,3201.38 2690.55,3212.33 2680.61,3225.89 2670.98,3237.10 2662.64,3246.95 2659.71,3252.10 2657.85,3268.65 2655.41,3282.13 2632.21,3312.53 2599.53,3350.52 2545.55,3391.33 2495.81,3413.96 2476.81,3430.30 2448.97,3446.59 2428.78,3465.27 2421.02,3482.25 2416.78,3501.60 2420.78,3528.02 2441.36,3547.50 2479.66,3567.65 2516.12,3600.12 2536.08,3624.29 2551.05,3652.60 2568.04,3675.18 2592.92,3714.38 2632.27,3762.12 2653.96,3792.76 2651.48,3817.39 2639.51,3846.68 2612.20,3872.95 2560.65,3902.62 2523.38,3912.99 2450.57,3938.44 2400.84,3959.31 2340.45,3986.01 2277.16,3999.76 2246.43,4000.19 2144.78,4006.72 2041.91,4020.28 1986.98,4018.82 1966.27,4025.17 1939.67,4029.14 1839.76,4041.55 1810.80,4043.16 1773.60,4040.62 1751.35,4029.22 1734.11,4021.05 1716.77,4005.94 1699.48,3980.62 1691.92,3952.75 1690.25,3932.20 1694.75,3922.43 1695.65,3916.97 1706.37,3901.76 1722.41,3882.47 1783.00,3818.81 1833.26,3756.16 1853.38,3732.93 1878.68,3712.83 1892.50,3697.47 1897.46,3682.92 1905.54,3656.86 1900.28,3645.68 1874.24,3622.61 1834.69,3592.52 1778.41,3560.54 1662.51,3464.42 1648.69,3453.13 1623.38,3435.54 1580.52,3409.21 1494.67,3361.29 1470.54,3342.38 1462.94,3327.09 1453.08,3291.23 1442.01,3260.07 1435.92,3239.20 1426.32,3210.10 1405.90,3158.34 1405.42,3145.69 1401.21,3035.65 1408.78,2942.37 1413.38,2850.25 1412.02,2769.24 1412.32,2709.38 1407.15,2682.35 1398.42,2656.47 1372.52,2637.57 1354.80,2636.88 1324.08,2636.14 1296.87,2641.29 1270.81,2654.65 1250.05,2669.81 1232.48,2683.08 1209.14,2700.71 1161.71,2732.16 1105.37,2774.13 1059.06,2817.92 1026.37,2855.31 1005.24,2890.13 975.78,2929.60 881.15,3065.28 819.28,3148.90 737.17,3262.93 693.77,3316.12 665.89,3339.46 634.49,3355.73 597.81,3366.11 385.03,3384.98 305.88,3380.48 277.02,3379.53 61.91,3376.31 -7.34,3360.35 -132.98,3361.22 -166.01,3351.08 -179.53,3336.93 -186.53,3319.28 -200.49,3275.20 -214.87,3198.23 -227.48,3123.04 -222.29,3030.92 -214.65,2922.97 -193.37,2803.92 -181.14,2720.65 -182.75,2689.52 -197.74,2616.08 -228.77,2560.17 -235.17,2541.36 -247.28,2483.77 -260.37,2383.93 -265.29,2306.42 -294.81,2183.61 -300.37,2116.08 -314.09,2025.04 -312.71,1987.48 -307.28,1963.43 -294.80,1950.00 -281.80,1948.89 -235.13,1950.30 -139.37,1939.64 24.90,1934.60 55.68,1923.60 74.68,1906.09 88.99,1879.17 90.28,1858.05 80.44,1816.90 53.89,1752.36 29.27,1657.58 45.52,1597.21 64.08,1549.76 91.46,1509.99 119.36,1484.30 139.65,1444.49 148.68,1411.67 147.28,1337.70 155.42,1246.77 170.47,1191.67 182.44,1160.62 206.19,1137.27 223.93,1135.00 251.04,1148.06 281.61,1177.56 305.11,1205.27 323.39,1212.40 341.10,1213.07 357.13,1199.66 381.63,1144.02 385.94,1111.76 382.53,1084.74 368.43,1066.48 289.39,1042.60 39.75,985.57 -107.86,967.22 -195.31,968.53 -230.19,973.06 -259.76,979.95 -281.65,983.95 -311.18,983.80 -338.94,978.97 -351.83,962.72 -361.60,944.07 -365.37,922.60 -324.54,818.80 -286.25,726.25 -253.31,637.78 -244.80,591.46 -247.56,552.70 -258.03,519.20 -279.21,502.07 -318.08,475.46 -346.99,469.44 -363.56,474.05 -385.49,488.61 -400.96,508.50 -414.64,527.21 -422.46,555.34 -429.77,596.98 -434.26,669.15 -448.02,703.13 -482.51,746.98 -507.41,765.04 -539.39,778.97 -562.46,783.55 -599.68,782.77 -639.19,767.91 -726.34,711.12 -765.24,690.38 -795.92,683.18 -828.39,676.55 -861.98,659.96 -878.45,645.19 -895.20,609.50 -902.78,579.17 -908.77,552.30 -931.69,542.79 -950.90,549.50 -973.73,560.19 -997.46,578.27 -1088.73,635.33 -1106.92,609.41 -1034.01,562.83 -982.46,532.56 -951.64,514.53 -930.93,507.59 -917.33,504.71 -904.92,505.96 -888.41,512.49 -877.26,527.23 -870.99,572.46 -871.72,598.86 -866.49,617.67 -851.80,633.59 -826.43,640.77 -803.41,643.81 -769.73,645.16 -749.66,648.19 -729.66,667.07 -683.77,703.70 -643.14,730.91 -607.17,745.17 -571.77,755.33 -542.19,749.03 -519.10,737.99 -492.36,708.78 -479.81,678.31 -468.33,628.48 -453.82,563.98 -449.48,521.75 -438.73,500.68 -426.81,479.61 -419.06,466.73 -408.97,456.80 -396.01,448.09 -386.44,441.66 -365.11,431.19 -345.01,428.95 -324.95,433.16 -297.85,447.38 -261.37,478.09 -241.44,509.89 -223.36,555.76 -217.65,596.88 -224.97,642.03 -246.51,695.93 -314.78,875.20 -327.30,899.19 -321.50,920.35 -305.60,931.01 -280.27,945.80 -251.34,948.88 -203.43,939.14 -136.06,934.79 -76.99,939.20 89.47,970.56 235.30,989.50 350.84,1040.57 386.26,1048.96 401.58,1054.32 413.93,1067.88 418.60,1077.29 426.14,1105.51 398.00,1179.33 380.67,1216.22 365.22,1236.10 347.41,1251.26 327.31,1253.51 303.73,1243.41 283.13,1226.87 264.35,1202.71 245.56,1180.90 236.74,1170.88 223.76,1167.29 216.06,1171.94 208.36,1176.02 199.43,1189.47 190.41,1221.12 181.93,1378.97 162.57,1466.92 155.34,1494.46 134.53,1521.35 109.00,1545.88 80.47,1579.19 70.31,1601.44 58.33,1634.25 54.44,1653.45 57.54,1686.37 70.32,1730.47 80.30,1764.31 94.13,1798.19 112.32,1822.94 115.77,1842.91 113.87,1867.55 98.24,1919.13 81.57,1943.69 21.20,1966.87 -18.41,1969.60 -76.34,1975.76 -134.20,1968.42 -159.60,1968.30 -195.08,1974.58 -230.56,1980.85 -258.94,1984.23 -273.74,1991.19 -283.23,1998.78 -283.88,2009.34 -283.98,2029.29 -261.12,2182.61 -247.99,2274.23 -231.36,2371.75 -208.34,2493.36 -194.37,2535.69 -176.87,2578.62 -154.27,2665.02 -149.19,2712.59 -145.25,2751.35 -178.57,2913.76 -195.74,3038.09 -194.24,3092.11 -188.01,3144.96 -179.60,3234.80 -173.91,3277.09 -168.67,3293.54 -154.56,3304.78 -141.01,3313.05 -114.46,3320.23 -39.46,3325.90 138.86,3347.35 233.97,3348.42 280.78,3349.14 456.66,3355.41 525.77,3357.52 582.55,3346.07 641.76,3320.56 676.17,3292.56 745.14,3206.62 842.69,3075.65 942.06,2938.82 1046.16,2799.07 1091.36,2741.78 1125.75,2716.12 1181.48,2680.03 1223.13,2653.85 1232.44,2648.01 1278.06,2624.75 1333.08,2609.78 1360.26,2608.75 1380.94,2609.44 1408.04,2623.66 1425.69,2638.43 1440.86,2674.30 1447.16,2713.66 1450.43,2767.67 1440.49,2864.47 1452.05,2914.42 1453.67,2943.19 1459.48,2961.41 1462.88,2990.19 1468.76,2998.43 1479.34,3006.70 1491.07,3024.96 1488.02,3043.14 1485.56,3061.91 1478.44,3068.33 1463.66,3068.84 1453.62,3070.56 1437.65,3072.23 1428.76,3077.46 1425.14,3093.30 1431.36,3148.50 1440.06,3179.65 1455.20,3222.58 1474.98,3281.96 1483.69,3312.53 1501.31,3333.75 1637.38,3412.49 1740.16,3480.12 1776.73,3512.16 1880.49,3586.30 1911.09,3608.75 1926.40,3619.99 1936.96,3635.89 1943.95,3652.95 1945.63,3670.56 1944.39,3683.47 1939.56,3704.58 1909.82,3743.75 1862.35,3782.24 1794.01,3860.54 1742.34,3914.27 1732.80,3930.66 1732.73,3945.32 1737.94,3965.89 1745.53,3984.13 1760.23,3995.94 1777.33,4003.66 1800.35,4008.47 1847.03,4006.95 1906.16,3996.10 1955.22,3991.66 2025.57,3982.05 2045.68,3977.45 2055.17,3969.87 2061.74,3958.16 2072.75,3947.49 2089.30,3951.53 2100.53,3955.99 2107.20,3962.51 2133.14,3973.21 2156.75,3976.26 2183.34,3976.39 2260.14,3977.37 2325.23,3957.75 2419.34,3922.44 2476.93,3894.70 2513.71,3876.37 2537.34,3860.33 2546.45,3836.26 2540.70,3788.80 2556.05,3740.80 2553.32,3718.87 2523.98,3680.57 2446.99,3601.52 2407.03,3559.65 2394.76,3531.42 2388.98,3508.49 2387.32,3485.60 2393.33,3465.08 2405.84,3445.78 2439.11,3409.57 2527.43,3353.08 2574.34,3308.13 2595.16,3279.48 2612.97,3264.30 2623.65,3253.21 2627.26,3240.32 2629.70,3226.82 2634.50,3212.18 2642.25,3196.96 2663.12,3160.68 2679.21,3134.34 2710.62,3114.55 2736.68,3102.95 2749.73,3093.62 2762.21,3078.43 2767.60,3063.19 2771.26,3041.50 2772.54,3020.96 2775.01,3002.19 2776.86,2987.53 2783.41,2977.59 2794.65,2972.94 2808.84,2971.84 2823.58,2977.79 2840.67,2984.92 2862.52,2987.38 2920.39,2993.54 2968.16,3010.81 2992.88,3029.73 3013.47,3046.26 3028.78,3056.32 3039.39,3058.73 3047.71,3052.31 3044.21,3044.07 3031.88,3026.98 3024.27,3014.03 3004.86,2996.32 2996.64,2986.90 2998.46,2976.33 3007.97,2967.59 3017.42,2967.05 3032.78,2967.13 3042.19,2976.56 3048.04,2988.34 3046.75,3008.29 3052.54,3031.79 3057.79,3044.14 3063.66,3052.39 3068.38,3053.59 3073.68,3057.13 3082.54,3057.78 3095.57,3051.97 3108.62,3040.88 3121.64,3036.84 3138.75,3040.45 3158.21,3047.59 3175.92,3048.86 3208.45,3043.74 3243.94,3035.12 3293.74,3001.93 3342.39,2962.26 3369.16,2927.18 3384.11,2891.46 3387.85,2852.74 3415.42,2778.34 3425.75,2733.83 3432.32,2709.17 3439.57,2678.10 3452.72,2647.64 3468.84,2615.44 3490.25,2587.37 3505.12,2570.44 3516.38,2562.86 3530.57,2560.00 3540.01,2562.98 3551.21,2568.92 3564.79,2570.16 3575.45,2564.34 3592.04,2555.03 3605.65,2550.41 3612.74,2552.21 3620.98,2556.94 3634.43,2584.60 3652.42,2648.67 3676.58,2757.20 3678.97,2767.95 3688.20,2813.79 3685.60,2858.96 3691.20,2888.90 3699.47,2917.73 3705.25,2943.00 3720.44,2976.54 3741.55,3007.75 3771.59,3026.10 3785.10,3039.67 3796.85,3052.06 3803.29,3062.66 3807.94,3079.70 3799.77,3172.99 3794.78,3224.61 3788.05,3261.77 3787.08,3285.00 3784.31,3307.90 3784.80,3327.27 3773.96,3367.13 3756.58,3413.40 3753.51,3437.46 3781.48,3511.55 3795.51,3541.56 3805.45,3562.74 3808.32,3577.42 3808.25,3590.93 3797.52,3608.48 3786.83,3621.93 3779.08,3633.62 3775.98,3662.96 3773.07,3767.41 3763.31,3827.23 3763.66,3874.77 3776.37,3930.01 3781.00,3948.82 3787.41,3964.69 3782.44,4012.80 3772.69,4070.86 3759.05,4081.35 3751.28,4098.33 3786.03,4232.33 3798.85,4267.03 3801.71,4285.82 3802.18,4309.30 3795.58,4328.04 3780.11,4349.69 3724.46,4371.70 3654.04,4393.64 3596.64,4412.13 3580.65,4419.08 3564.63,4433.68 3559.78,4458.30 3558.97,4498.79 3554.83,4508.26 3553.59,4511.09 3552.37,4519.30 3566.96,4552.83 3591.99,4628.71 3614.66,4697.46 3613.93,4725.05 3615.60,4745.01 3624.37,4762.66 3637.74,4806.16 3661.03,4869.66 3664.42,4900.20 3673.79,4918.45 3680.24,4926.70 3684.88,4943.15 3695.84,4993.10 3700.93,5037.73 3698.11,5125.76 3696.14,5279.51 3699.34,5461.48 3700.39,5600.58 3683.27,5710.24 3684.93,5731.38 3694.70,5784.25 3689.87,5804.77 3686.83,5823.53 3681.67,5852.67 3653.66,5839.16"/>
    <poly id="building_4" type="building" color="200,200,200" fill="true" layer="2" shape="1583.81,2098.22 1577.93,2089.27 1584.13,2085.25 1601.84,2086.52 1583.81,2098.22"/>
    <poly id="water_5" type="water" color="170,211,223" fill="true" layer="0" shape="1695.98,2221.47 1678.28,2217.86 1653.58,2194.26 1650.71,2178.40 1674.13,2162.19 1706.68,2208.62 1695.98,2221.47"/>
    <poly id="building_6" type="building" color="200,200,200" fill="true" layer="2" shape="1652.87,2113.22 1647.48,2103.10 1661.60,2095.68 1666.99,2105.79 1652.87,2113.22"/>
    <poly id="building_7" type="building" color="200,200,200" fill="true" layer="2" shape="705.43,2571.75 734.17,2606.14 820.72,2534.77 792.01,2500.40 705.43,2571.75"/>
    <poly id="building_8" type="building" color="200,200,200" fill="true" layer="2" shape="1585.07,2361.35 1595.86,2364.99 1593.00,2370.34 1588.32,2382.06 1580.09,2378.96 1583.50,2367.48 1585.07,2361.35"/>
    <poly id="building_9" type="building" color="200,200,200" fill="true" layer="2" shape="1488.13,2137.62 1493.01,2146.51 1511.14,2136.68 1506.26,2127.80 1488.13,2137.62"/>
    <poly id="building_10" type="building" color="200,200,200" fill="true" layer="2" shape="1595.33,2887.79 1591.33,2871.90 1598.11,2870.22 1603.04,2868.99 1607.04,2884.88 1595.33,2887.79"/>
    <poly id="building_11" type="building" color="200,200,200" fill="true" layer="2" shape="1217.88,1816.06 1227.15,1815.50 1226.42,1803.31 1217.14,1803.86 1217.88,1816.06"/>
    <poly id="building_12" type="building" color="200,200,200" fill="true" layer="2" shape="932.39,1812.11 941.65,1814.50 951.98,1798.69 928.55,1790.16 923.99,1798.16 935.40,1802.52 932.39,1812.11"/>
    <poly id="building_13" type="building" color="200,200,200" fill="true" layer="2" shape="983.28,2762.70 983.11,2736.91 1012.24,2736.70 1011.32,2763.27 983.28,2762.70"/>
    <poly id="building_14" type="building" color="200,200,200" fill="true" layer="2" shape="1154.84,2403.66 1143.87,2392.08 1157.00,2379.80 1167.98,2391.38 1154.84,2403.66"/>
    <poly id="residential_15" type="residential" color="220,220,220" fill="true" layer="-1" shape="1574.89,2796.32 1594.16,2839.85 1451.53,2889.30 1445.83,2849.08 1449.23,2819.46 1496.50,2807.74 1520.51,2801.91 1530.74,2799.99 1549.51,2796.47 1560.13,2794.48 1574.89,2796.32"/>
    <poly id="building_16" type="building" color="200,200,200" fill="true" layer="2" shape="1534.52,2826.82 1530.74,2799.99 1549.51,2796.47 1553.46,2821.37 1534.52,2826.82"/>
    <poly id="building_17" type="building" color="200,200,200" fill="true" layer="2" shape="1082.04,2455.94 1089.64,2449.29 1099.51,2460.41 1091.90,2467.07 1082.04,2455.94"/>
    <poly id="building_18" type="building" color="200,200,200" fill="true" layer="2" shape="1004.35,2395.70 979.23,2357.02 965.69,2365.69 981.56,2390.12 975.56,2393.96 974.02,2391.58 971.10,2393.44 962.13,2379.65 942.09,2392.49 952.61,2408.68 946.08,2412.86 932.38,2391.76 946.72,2382.57 938.29,2369.59 910.27,2387.55 941.67,2435.88 955.26,2427.17 954.46,2425.93 961.89,2421.18 966.95,2428.96 978.06,2421.84 973.00,2414.05 989.57,2403.43 990.37,2404.67 1004.35,2395.70"/>
    <poly id="building_19" type="building" color="200,200,200" fill="true" layer="2" shape="1444.50,1956.92 1444.50,1931.87 1466.20,1932.04 1466.14,1956.89 1457.57,1957.13 1457.40,1961.80 1453.19,1961.65 1453.29,1957.18 1444.50,1956.92"/>
    <poly id="building_20" type="building" color="200,200,200" fill="true" layer="2" shape="1463.43,1951.22 1463.65,1935.38 1448.97,1934.82 1448.32,1952.05 1452.96,1951.87 1452.98,1949.01 1456.35,1948.61 1456.54,1951.68 1463.43,1951.22"/>
    <poly id="building_21" type="building" color="200,200,200" fill="true" layer="2" shape="1326.70,1997.72 1337.72,1993.44 1334.12,1984.29 1323.10,1988.58 1326.70,1997.72"/>
    <poly id="building_22" type="building" color="200,200,200" fill="true" layer="2" shape="1351.42,1985.80 1351.53,1988.56 1365.06,1988.07 1364.61,1975.62 1361.03,1975.74 1351.06,1976.11 1351.42,1985.80"/>
    <poly id="building_23" type="building" color="200,200,200" fill="true" layer="2" shape="1374.87,1989.19 1382.71,1988.53 1382.40,1984.94 1381.70,1976.60 1373.86,1977.25 1374.87,1989.19"/>
    <poly id="building_24" type="building" color="200,200,200" fill="true" layer="2" shape="1382.53,1984.92 1390.80,1984.61 1390.65,1980.82 1396.67,1980.58 1396.23,1969.11 1388.70,1969.40 1388.99,1976.95 1382.22,1977.20 1382.53,1984.92"/>
    <poly id="building_25" type="building" color="200,200,200" fill="true" layer="2" shape="1374.95,1970.53 1384.69,1970.98 1385.38,1956.03 1375.30,1955.57 1374.60,1970.51 1374.95,1970.53"/>
    <poly id="building_26" type="building" color="200,200,200" fill="true" layer="2" shape="1317.35,1968.53 1328.47,1968.83 1328.79,1956.80 1317.67,1956.50 1317.35,1968.53"/>
    <poly id="building_27" type="building" color="200,200,200" fill="true" layer="2" shape="1345.30,1973.71 1362.43,1973.85 1362.53,1961.06 1345.40,1960.92 1345.30,1973.71"/>
    <poly id="building_28" type="building" color="200,200,200" fill="true" layer="2" shape="1352.92,1957.10 1364.49,1956.28 1363.91,1948.18 1352.34,1949.00 1352.92,1957.10"/>
    <poly id="building_29" type="building" color="200,200,200" fill="true" layer="2" shape="1391.74,1964.11 1396.92,1963.04 1406.64,1961.03 1404.33,1950.02 1389.44,1953.09 1391.74,1964.11"/>
    <poly id="building_30" type="building" color="200,200,200" fill="true" layer="2" shape="1398.87,1978.54 1409.41,1978.07 1408.78,1963.97 1398.24,1964.44 1398.87,1978.54"/>
    <poly id="building_31" type="building" color="200,200,200" fill="true" layer="2" shape="1413.80,1978.60 1423.25,1978.14 1422.53,1963.52 1413.09,1963.99 1413.80,1978.60"/>
    <poly id="building_32" type="building" color="200,200,200" fill="true" layer="2" shape="1410.19,1958.21 1411.56,1950.39 1421.86,1952.18 1420.49,1960.00 1410.19,1958.21"/>
    <poly id="building_33" type="building" color="200,200,200" fill="true" layer="2" shape="1411.73,1946.37 1412.52,1934.17 1421.74,1934.77 1420.94,1946.97 1411.73,1946.37"/>
    <poly id="building_34" type="building" color="200,200,200" fill="true" layer="2" shape="1324.58,1948.10 1341.40,1947.09 1340.60,1934.10 1335.07,1934.43 1334.27,1921.19 1330.28,1921.44 1329.87,1914.56 1324.82,1914.86 1325.36,1923.77 1326.06,1935.32 1323.82,1935.45 1324.58,1948.10"/>
    <poly id="building_35" type="building" color="200,200,200" fill="true" layer="2" shape="1387.32,1949.62 1398.77,1949.90 1399.02,1939.91 1387.57,1939.63 1387.32,1949.62"/>
    <poly id="building_36" type="building" color="200,200,200" fill="true" layer="2" shape="1359.53,1936.64 1376.27,1937.54 1376.94,1925.00 1360.19,1924.10 1359.53,1936.64"/>
    <poly id="building_37" type="building" color="200,200,200" fill="true" layer="2" shape="1342.95,1938.02 1352.45,1938.32 1352.82,1926.83 1343.32,1926.53 1342.95,1938.02"/>
    <poly id="building_38" type="building" color="200,200,200" fill="true" layer="2" shape="1366.31,1949.31 1376.94,1949.43 1377.05,1940.28 1366.41,1940.16 1366.31,1949.31"/>
    <poly id="water_39" type="water" color="170,211,223" fill="true" layer="0" shape="1433.07,1915.59 1432.96,1916.76 1432.50,1917.84 1431.72,1918.73 1430.70,1919.32 1429.55,1919.57 1428.38,1919.44 1427.30,1918.97 1426.43,1918.18 1425.81,1917.06 1425.61,1915.80 1425.85,1914.55 1426.50,1913.46 1427.50,1912.64 1428.70,1912.22 1429.98,1912.21 1431.19,1912.64 1432.18,1913.45 1432.79,1914.45 1433.07,1915.59"/>
    <poly id="building_40" type="building" color="200,200,200" fill="true" layer="2" shape="1497.90,2073.53 1502.87,2079.73 1513.61,2071.24 1502.09,2056.86 1495.44,2062.12 1502.00,2070.30 1497.90,2073.53"/>
    <poly id="building_41" type="building" color="200,200,200" fill="true" layer="2" shape="1551.21,2848.68 1547.76,2835.82 1561.56,2831.15 1564.15,2846.10 1551.21,2848.68"/>
    <poly id="building_42" type="building" color="200,200,200" fill="true" layer="2" shape="1562.73,2826.16 1574.84,2821.20 1578.41,2837.97 1567.15,2840.99 1562.73,2826.16"/>
    <poly id="building_43" type="building" color="200,200,200" fill="true" layer="2" shape="1474.49,2879.89 1484.90,2878.54 1477.73,2851.98 1467.60,2853.89 1474.49,2879.89"/>
    <poly id="building_44" type="building" color="200,200,200" fill="true" layer="2" shape="1499.85,2831.83 1496.50,2807.74 1518.66,2806.26 1522.15,2830.38 1499.85,2831.83"/>
    <poly id="building_45" type="building" color="200,200,200" fill="true" layer="2" shape="730.59,2831.55 730.42,2818.54 741.46,2818.41 741.62,2831.42 730.59,2831.55"/>
    <poly id="building_46" type="building" color="200,200,200" fill="true" layer="2" shape="715.08,2817.28 724.36,2816.43 723.24,2804.20 713.95,2805.05 715.08,2817.28"/>
    <poly id="building_47" type="building" color="200,200,200" fill="true" layer="2" shape="1384.26,1921.92 1398.53,1922.85 1399.58,1906.74 1385.31,1905.82 1384.26,1921.92"/>
    <poly id="building_48" type="building" color="200,200,200" fill="true" layer="2" shape="1322.92,1883.69 1340.67,1881.34 1339.11,1869.78 1321.37,1872.13 1322.92,1883.69"/>
    <poly id="building_49" type="building" color="200,200,200" fill="true" layer="2" shape="1403.38,1872.51 1418.26,1869.78 1415.87,1856.92 1413.82,1845.89 1398.94,1848.61 1400.90,1859.21 1403.38,1872.51"/>
    <poly id="building_50" type="building" color="200,200,200" fill="true" layer="2" shape="1347.75,1877.62 1359.89,1877.32 1359.40,1858.15 1347.27,1858.45 1347.75,1877.62"/>
    <poly id="building_51" type="building" color="200,200,200" fill="true" layer="2" shape="1327.39,1827.74 1349.13,1828.10 1349.45,1808.86 1327.71,1808.49 1327.39,1827.74"/>
    <poly id="building_52" type="building" color="200,200,200" fill="true" layer="2" shape="1267.68,1845.34 1277.21,1845.84 1277.96,1831.58 1268.44,1831.09 1267.68,1845.34"/>
    <poly id="building_53" type="building" color="200,200,200" fill="true" layer="2" shape="1474.62,1842.61 1491.98,1845.03 1494.01,1830.56 1476.66,1828.15 1474.62,1842.61"/>
    <poly id="building_54" type="building" color="200,200,200" fill="true" layer="2" shape="1540.81,1844.98 1555.24,1841.22 1550.11,1821.82 1535.68,1825.57 1540.81,1844.98"/>
    <poly id="building_55" type="building" color="200,200,200" fill="true" layer="2" shape="1395.03,1838.97 1406.35,1837.63 1404.29,1820.37 1392.96,1821.70 1395.03,1838.97"/>
    <poly id="building_56" type="building" color="200,200,200" fill="true" layer="2" shape="845.50,2895.90 849.72,2892.88 845.16,2890.19 843.72,2884.45 833.19,2887.03 834.05,2890.53 840.17,2891.31 835.56,2895.47 845.50,2895.90"/>
    <poly id="building_57" type="building" color="200,200,200" fill="true" layer="2" shape="845.89,2185.55 846.85,2179.36 849.86,2179.81 850.29,2177.02 856.64,2177.98 855.27,2186.98 845.89,2185.55"/>
    <poly id="building_58" type="building" color="200,200,200" fill="true" layer="2" shape="786.47,2200.77 785.08,2192.10 795.24,2190.49 796.82,2200.32 792.00,2199.90 786.47,2200.77"/>
    <poly id="building_59" type="building" color="200,200,200" fill="true" layer="2" shape="1496.36,2402.09 1496.51,2390.95 1506.38,2391.07 1506.25,2402.21 1496.36,2402.09"/>
    <poly id="building_60" type="building" color="200,200,200" fill="true" layer="2" shape="1534.33,2219.33 1531.94,2211.49 1534.31,2209.44 1534.32,2205.92 1539.75,2204.28 1543.51,2216.56 1534.33,2219.33"/>
    <poly id="building_61" type="building" color="200,200,200" fill="true" layer="2" shape="1217.84,2471.97 1215.79,2461.43 1234.11,2457.90 1236.16,2468.44 1217.84,2471.97"/>
    <poly id="building_62" type="building" color="200,200,200" fill="true" layer="2" shape="1156.14,2372.80 1155.86,2371.47 1158.82,2368.70 1160.13,2371.65 1156.14,2372.80"/>
    <poly id="building_63" type="building" color="200,200,200" fill="true" layer="2" shape="959.09,1904.04 958.69,1892.21 977.30,1891.59 977.69,1903.43 959.09,1904.04"/>
    <poly id="industrial_64" type="industrial" color="235,219,233" fill="true" layer="-1" shape="1136.68,2398.73 1156.58,2434.04 1266.07,2397.92 1305.25,2534.58 1321.22,2587.78 1217.02,2632.15 1193.34,2582.44 1174.19,2514.84 1151.79,2448.40 1126.59,2407.49 1136.68,2398.73"/>
    <poly id="building_65" type="building" color="200,200,200" fill="true" layer="2" shape="776.73,2369.01 780.61,2417.16 814.79,2414.44 810.89,2366.29 776.73,2369.01"/>
    <poly id="building_66" type="building" color="200,200,200" fill="true" layer="2" shape="813.89,2321.67 763.89,2330.97 768.53,2355.47 818.52,2346.16 813.89,2321.67"/>
    <poly id="building_67" type="building" color="200,200,200" fill="true" layer="2" shape="823.65,2321.13 828.29,2345.73 953.46,2322.42 958.67,2350.07 997.62,2342.81 987.75,2290.56 823.65,2321.13"/>
    <poly id="building_68" type="building" color="200,200,200" fill="true" layer="2" shape="1006.79,2321.76 1018.35,2429.82 1048.72,2426.61 1037.16,2318.56 1006.79,2321.76"/>
    <poly id="building_69" type="building" color="200,200,200" fill="true" layer="2" shape="985.37,2468.39 988.85,2473.75 999.85,2466.71 996.36,2461.34 985.37,2468.39"/>
    <poly id="commercial_70" type="commercial" color="242,218,218" fill="true" layer="-1" shape="1491.28,2026.94 1578.04,2044.71 1617.29,2051.94 1628.99,2076.07 1605.31,2087.39 1527.39,2073.50 1510.50,2083.97 1481.02,2070.03 1470.71,2065.57 1477.86,2051.23 1487.91,2051.28 1491.28,2026.94"/>
    <poly id="building_71" type="building" color="200,200,200" fill="true" layer="2" shape="863.87,2078.79 882.17,2078.44 882.53,2096.63 864.23,2096.98 863.87,2078.79"/>
    <poly id="building_72" type="building" color="200,200,200" fill="true" layer="2" shape="795.85,2252.16 796.45,2267.10 788.32,2267.42 787.73,2252.49 795.85,2252.16"/>
    <poly id="building_73" type="building" color="200,200,200" fill="true" layer="2" shape="804.16,2003.67 817.27,2003.10 817.75,2014.06 804.64,2014.64 804.16,2003.67"/>
    <poly id="building_74" type="building" color="200,200,200" fill="true" layer="2" shape="853.81,1813.32 845.87,1812.12 846.56,1807.65 854.49,1808.84 853.81,1813.32"/>
    <poly id="building_75" type="building" color="200,200,200" fill="true" layer="2" shape="721.33,2059.91 721.70,2069.45 715.05,2069.70 714.68,2060.17 721.33,2059.91"/>
    <poly id="building_76" type="building" color="200,200,200" fill="true" layer="2" shape="890.14,1975.29 902.07,1973.33 903.74,1983.32 891.81,1985.28 890.14,1975.29"/>
    <poly id="building_77" type="building" color="200,200,200" fill="true" layer="2" shape="742.95,1998.87 757.10,1997.32 760.08,2023.97 744.92,2025.64 744.04,2017.81 745.06,2017.71 742.95,1998.87"/>
    <poly id="building_78" type="building" color="200,200,200" fill="true" layer="2" shape="785.34,1928.21 795.44,1926.70 796.49,1933.59 786.38,1935.09 785.34,1928.21"/>
    <poly id="building_79" type="building" color="200,200,200" fill="true" layer="2" shape="775.47,1968.98 775.17,1978.37 762.77,1977.98 763.07,1968.60 775.47,1968.98"/>
    <poly id="building_80" type="building" color="200,200,200" fill="true" layer="2" shape="830.66,2148.41 831.16,2162.05 823.50,2162.32 822.99,2148.68 830.66,2148.41"/>
    <poly id="building_81" type="building" color="200,200,200" fill="true" layer="2" shape="721.77,1813.71 714.69,1813.47 714.96,1805.26 722.05,1805.49 721.77,1813.71"/>
    <poly id="building_82" type="building" color="200,200,200" fill="true" layer="2" shape="834.83,2244.83 834.17,2257.12 825.20,2256.66 825.85,2244.36 834.83,2244.83"/>
    <poly id="building_83" type="building" color="200,200,200" fill="true" layer="2" shape="723.70,1961.57 723.04,1975.04 710.96,1974.46 711.61,1960.99 723.70,1961.57"/>
    <poly id="building_84" type="building" color="200,200,200" fill="true" layer="2" shape="781.50,1803.09 787.87,1804.00 783.37,1835.20 777.00,1834.30 781.50,1803.09"/>
    <poly id="building_85" type="building" color="200,200,200" fill="true" layer="2" shape="729.91,2095.00 744.66,2092.91 746.02,2102.39 731.27,2104.48 729.91,2095.00"/>
    <poly id="building_86" type="building" color="200,200,200" fill="true" layer="2" shape="808.79,2033.72 816.31,2034.09 815.56,2049.03 809.51,2048.73 809.74,2044.18 808.27,2044.10 808.79,2033.72"/>
    <poly id="building_87" type="building" color="200,200,200" fill="true" layer="2" shape="915.17,2094.66 894.80,2095.23 894.37,2080.16 906.46,2079.81 906.65,2086.10 914.91,2085.86 915.17,2094.66"/>
    <poly id="building_88" type="building" color="200,200,200" fill="true" layer="2" shape="854.52,1838.42 854.05,1848.38 841.67,1847.80 842.14,1837.85 854.52,1838.42"/>
    <poly id="building_89" type="building" color="200,200,200" fill="true" layer="2" shape="793.77,1827.11 803.22,1827.29 802.94,1841.38 793.49,1841.19 793.77,1827.11"/>
    <poly id="building_90" type="building" color="200,200,200" fill="true" layer="2" shape="743.31,2076.24 743.71,2092.96 733.98,2093.19 733.58,2076.48 743.31,2076.24"/>
    <poly id="building_91" type="building" color="200,200,200" fill="true" layer="2" shape="840.74,2238.34 841.04,2228.08 847.53,2228.26 847.24,2238.53 840.74,2238.34"/>